
---------- Begin Simulation Statistics ----------
simSeconds                                   1.742084                       # Number of seconds simulated (Second)
simTicks                                   1742084197                       # Number of ticks simulated (Tick)
finalTick                                  1742084197                       # Number of ticks from beginning of simulation (restored from checkpoints and never reset) (Tick)
simFreq                                    1000000000                       # The number of ticks per simulated second ((Tick/Second))
hostSeconds                                    287.12                       # Real time elapsed on the host (Second)
hostTickRate                                  6067351                       # The number of ticks simulated per host second (ticks/s) ((Tick/Second))
hostMemory                                     817332                       # Number of bytes of host memory used (Byte)
simInsts                                    502769315                       # Number of instructions simulated (Count)
simVecInsts                                  63981982                       # Number of vector instructions simulated (Count)
simOps                                      504102403                       # Number of ops (including micro ops) simulated (Count)
hostInstRate                                  1751050                       # Simulator instruction rate (inst/s) ((Count/Second))
hostOpRate                                    1755693                       # Simulator op (including micro ops) rate (op/s) ((Count/Second))
system.clk_domain.clock                             1                       # Clock period in ticks (Tick)
system.cpu.numCycles                        606887340                       # Number of cpu cycles simulated (Cycle)
system.cpu.numWorkItemsStarted                      0                       # Number of work items this cpu started (Count)
system.cpu.numWorkItemsCompleted                    0                       # Number of work items this cpu completed (Count)
system.cpu.dcache.demandHits::cpu.data      162916980                       # number of demand (read+write) hits (Count)
system.cpu.dcache.demandHits::total         162916980                       # number of demand (read+write) hits (Count)
system.cpu.dcache.overallHits::cpu.data     162916980                       # number of overall hits (Count)
system.cpu.dcache.overallHits::total        162916980                       # number of overall hits (Count)
system.cpu.dcache.demandMisses::cpu.data      7790511                       # number of demand (read+write) misses (Count)
system.cpu.dcache.demandMisses::total         7790511                       # number of demand (read+write) misses (Count)
system.cpu.dcache.overallMisses::cpu.data      7790511                       # number of overall misses (Count)
system.cpu.dcache.overallMisses::total        7790511                       # number of overall misses (Count)
system.cpu.dcache.demandAccesses::cpu.data    170707491                       # number of demand (read+write) accesses (Count)
system.cpu.dcache.demandAccesses::total     170707491                       # number of demand (read+write) accesses (Count)
system.cpu.dcache.overallAccesses::cpu.data    170707491                       # number of overall (read+write) accesses (Count)
system.cpu.dcache.overallAccesses::total    170707491                       # number of overall (read+write) accesses (Count)
system.cpu.dcache.demandMissRate::cpu.data     0.045637                       # miss rate for demand accesses (Ratio)
system.cpu.dcache.demandMissRate::total      0.045637                       # miss rate for demand accesses (Ratio)
system.cpu.dcache.overallMissRate::cpu.data     0.045637                       # miss rate for overall accesses (Ratio)
system.cpu.dcache.overallMissRate::total     0.045637                       # miss rate for overall accesses (Ratio)
system.cpu.dcache.blockedCycles::no_mshrs            0                       # number of cycles access was blocked (Cycle)
system.cpu.dcache.blockedCycles::no_targets            0                       # number of cycles access was blocked (Cycle)
system.cpu.dcache.blockedCauses::no_mshrs            0                       # number of times access was blocked (Count)
system.cpu.dcache.blockedCauses::no_targets            0                       # number of times access was blocked (Count)
system.cpu.dcache.avgBlocked::no_mshrs            nan                       # average number of cycles each access was blocked ((Cycle/Count))
system.cpu.dcache.avgBlocked::no_targets          nan                       # average number of cycles each access was blocked ((Cycle/Count))
system.cpu.dcache.writebacks::writebacks      1924611                       # number of writebacks (Count)
system.cpu.dcache.writebacks::total           1924611                       # number of writebacks (Count)
system.cpu.dcache.replacements                7789496                       # number of replacements (Count)
system.cpu.dcache.LoadLockedReq.hits::cpu.data          671                       # number of LoadLockedReq hits (Count)
system.cpu.dcache.LoadLockedReq.hits::total          671                       # number of LoadLockedReq hits (Count)
system.cpu.dcache.LoadLockedReq.misses::cpu.data            4                       # number of LoadLockedReq misses (Count)
system.cpu.dcache.LoadLockedReq.misses::total            4                       # number of LoadLockedReq misses (Count)
system.cpu.dcache.LoadLockedReq.accesses::cpu.data          675                       # number of LoadLockedReq accesses(hits+misses) (Count)
system.cpu.dcache.LoadLockedReq.accesses::total          675                       # number of LoadLockedReq accesses(hits+misses) (Count)
system.cpu.dcache.LoadLockedReq.missRate::cpu.data     0.005926                       # miss rate for LoadLockedReq accesses (Ratio)
system.cpu.dcache.LoadLockedReq.missRate::total     0.005926                       # miss rate for LoadLockedReq accesses (Ratio)
system.cpu.dcache.ReadReq.hits::cpu.data     85701628                       # number of ReadReq hits (Count)
system.cpu.dcache.ReadReq.hits::total        85701628                       # number of ReadReq hits (Count)
system.cpu.dcache.ReadReq.misses::cpu.data      6349505                       # number of ReadReq misses (Count)
system.cpu.dcache.ReadReq.misses::total       6349505                       # number of ReadReq misses (Count)
system.cpu.dcache.ReadReq.accesses::cpu.data     92051133                       # number of ReadReq accesses(hits+misses) (Count)
system.cpu.dcache.ReadReq.accesses::total     92051133                       # number of ReadReq accesses(hits+misses) (Count)
system.cpu.dcache.ReadReq.missRate::cpu.data     0.068978                       # miss rate for ReadReq accesses (Ratio)
system.cpu.dcache.ReadReq.missRate::total     0.068978                       # miss rate for ReadReq accesses (Ratio)
system.cpu.dcache.StoreCondReq.hits::cpu.data          675                       # number of StoreCondReq hits (Count)
system.cpu.dcache.StoreCondReq.hits::total          675                       # number of StoreCondReq hits (Count)
system.cpu.dcache.StoreCondReq.accesses::cpu.data          675                       # number of StoreCondReq accesses(hits+misses) (Count)
system.cpu.dcache.StoreCondReq.accesses::total          675                       # number of StoreCondReq accesses(hits+misses) (Count)
system.cpu.dcache.SwapReq.hits::cpu.data         3337                       # number of SwapReq hits (Count)
system.cpu.dcache.SwapReq.hits::total            3337                       # number of SwapReq hits (Count)
system.cpu.dcache.SwapReq.misses::cpu.data            5                       # number of SwapReq misses (Count)
system.cpu.dcache.SwapReq.misses::total             5                       # number of SwapReq misses (Count)
system.cpu.dcache.SwapReq.accesses::cpu.data         3342                       # number of SwapReq accesses(hits+misses) (Count)
system.cpu.dcache.SwapReq.accesses::total         3342                       # number of SwapReq accesses(hits+misses) (Count)
system.cpu.dcache.SwapReq.missRate::cpu.data     0.001496                       # miss rate for SwapReq accesses (Ratio)
system.cpu.dcache.SwapReq.missRate::total     0.001496                       # miss rate for SwapReq accesses (Ratio)
system.cpu.dcache.WriteReq.hits::cpu.data     77215352                       # number of WriteReq hits (Count)
system.cpu.dcache.WriteReq.hits::total       77215352                       # number of WriteReq hits (Count)
system.cpu.dcache.WriteReq.misses::cpu.data      1441006                       # number of WriteReq misses (Count)
system.cpu.dcache.WriteReq.misses::total      1441006                       # number of WriteReq misses (Count)
system.cpu.dcache.WriteReq.accesses::cpu.data     78656358                       # number of WriteReq accesses(hits+misses) (Count)
system.cpu.dcache.WriteReq.accesses::total     78656358                       # number of WriteReq accesses(hits+misses) (Count)
system.cpu.dcache.WriteReq.missRate::cpu.data     0.018320                       # miss rate for WriteReq accesses (Ratio)
system.cpu.dcache.WriteReq.missRate::total     0.018320                       # miss rate for WriteReq accesses (Ratio)
system.cpu.dcache.power_state.pwrStateResidencyTicks::UNDEFINED   1742084197                       # Cumulative time (in ticks) in various power states (Tick)
system.cpu.dcache.tags.tagsInUse          1023.809529                       # Average ticks per tags in use ((Tick/Count))
system.cpu.dcache.tags.totalRefs            170712183                       # Total number of references to valid blocks. (Count)
system.cpu.dcache.tags.sampledRefs            7790520                       # Sample count of references to valid blocks. (Count)
system.cpu.dcache.tags.avgRefs              21.912810                       # Average number of references to valid blocks. ((Count/Count))
system.cpu.dcache.tags.warmupTick                 146                       # The tick when the warmup percentage was hit. (Tick)
system.cpu.dcache.tags.occupancies::cpu.data  1023.809529                       # Average occupied blocks per tick, per requestor ((Count/Tick))
system.cpu.dcache.tags.avgOccs::cpu.data     0.999814                       # Average percentage of cache occupancy ((Ratio/Tick))
system.cpu.dcache.tags.avgOccs::total        0.999814                       # Average percentage of cache occupancy ((Ratio/Tick))
system.cpu.dcache.tags.occupanciesTaskId::1024         1024                       # Occupied blocks per task id (Count)
system.cpu.dcache.tags.ageTaskId_1024::0           48                       # Occupied blocks per task id, per block age (Count)
system.cpu.dcache.tags.ageTaskId_1024::1          254                       # Occupied blocks per task id, per block age (Count)
system.cpu.dcache.tags.ageTaskId_1024::2          712                       # Occupied blocks per task id, per block age (Count)
system.cpu.dcache.tags.ageTaskId_1024::3           10                       # Occupied blocks per task id, per block age (Count)
system.cpu.dcache.tags.ratioOccsTaskId::1024            1                       # Ratio of occupied blocks and all blocks, per task id (Ratio)
system.cpu.dcache.tags.tagAccesses          690639252                       # Number of tag accesses (Count)
system.cpu.dcache.tags.dataAccesses         690639252                       # Number of data accesses (Count)
system.cpu.dcache.tags.power_state.pwrStateResidencyTicks::UNDEFINED   1742084197                       # Cumulative time (in ticks) in various power states (Tick)
system.cpu.dtb_walker_cache.blockedCycles::no_mshrs            0                       # number of cycles access was blocked (Cycle)
system.cpu.dtb_walker_cache.blockedCycles::no_targets            0                       # number of cycles access was blocked (Cycle)
system.cpu.dtb_walker_cache.blockedCauses::no_mshrs            0                       # number of times access was blocked (Count)
system.cpu.dtb_walker_cache.blockedCauses::no_targets            0                       # number of times access was blocked (Count)
system.cpu.dtb_walker_cache.avgBlocked::no_mshrs          nan                       # average number of cycles each access was blocked ((Cycle/Count))
system.cpu.dtb_walker_cache.avgBlocked::no_targets          nan                       # average number of cycles each access was blocked ((Cycle/Count))
system.cpu.dtb_walker_cache.replacements            0                       # number of replacements (Count)
system.cpu.dtb_walker_cache.power_state.pwrStateResidencyTicks::UNDEFINED   1742084197                       # Cumulative time (in ticks) in various power states (Tick)
system.cpu.dtb_walker_cache.tags.tagsInUse            0                       # Average ticks per tags in use ((Tick/Count))
system.cpu.dtb_walker_cache.tags.totalRefs            0                       # Total number of references to valid blocks. (Count)
system.cpu.dtb_walker_cache.tags.sampledRefs            0                       # Sample count of references to valid blocks. (Count)
system.cpu.dtb_walker_cache.tags.avgRefs          nan                       # Average number of references to valid blocks. ((Count/Count))
system.cpu.dtb_walker_cache.tags.warmupTick            0                       # The tick when the warmup percentage was hit. (Tick)
system.cpu.dtb_walker_cache.tags.tagAccesses            0                       # Number of tag accesses (Count)
system.cpu.dtb_walker_cache.tags.dataAccesses            0                       # Number of data accesses (Count)
system.cpu.dtb_walker_cache.tags.power_state.pwrStateResidencyTicks::UNDEFINED   1742084197                       # Cumulative time (in ticks) in various power states (Tick)
system.cpu.exec_context.thread_0.numInsts    502769315                       # Number of instructions committed (Count)
system.cpu.exec_context.thread_0.numOps     504102403                       # Number of ops (including micro ops) committed (Count)
system.cpu.exec_context.thread_0.numIntAluAccesses    443715778                       # Number of integer alu accesses (Count)
system.cpu.exec_context.thread_0.numFpAluAccesses      1847784                       # Number of float alu accesses (Count)
system.cpu.exec_context.thread_0.numVecAluAccesses     63987627                       # Number of vector alu accesses (Count)
system.cpu.exec_context.thread_0.numCallsReturns       622944                       # Number of times a function call or return occured (Count)
system.cpu.exec_context.thread_0.numCondCtrlInsts     70495305                       # Number of instructions that are conditional controls (Count)
system.cpu.exec_context.thread_0.numIntInsts    443715778                       # Number of integer instructions (Count)
system.cpu.exec_context.thread_0.numFpInsts      1847784                       # Number of float instructions (Count)
system.cpu.exec_context.thread_0.numVecInsts    104149132                       # Number of vector instructions (Count)
system.cpu.exec_context.thread_0.numInstsMonitor::(00:0x00194ab0-0x00195196)     67631350     30.88%     30.88% # Number of instructions being monitored (Count)
system.cpu.exec_context.thread_0.numInstsMonitor::(01:0x001bc370-0x001bce14)     41913444     19.14%     50.03% # Number of instructions being monitored (Count)
system.cpu.exec_context.thread_0.numInstsMonitor::(02:0x00194ace-0x00194f4e)     56307779     25.71%     75.74% # Number of instructions being monitored (Count)
system.cpu.exec_context.thread_0.numInstsMonitor::(03:0x001bc3c4-0x001bcc54)     40360320     18.43%     94.17% # Number of instructions being monitored (Count)
system.cpu.exec_context.thread_0.numInstsMonitor::(04:0x00194f4e-0x00195092)      7942860      3.63%     97.80% # Number of instructions being monitored (Count)
system.cpu.exec_context.thread_0.numInstsMonitor::(05:0x001bcc54-0x001bcd3c)      1092000      0.50%     98.30% # Number of instructions being monitored (Count)
system.cpu.exec_context.thread_0.numInstsMonitor::(06:0x00195092-0x00195190)      3307790      1.51%     99.81% # Number of instructions being monitored (Count)
system.cpu.exec_context.thread_0.numInstsMonitor::(07:0x001bcd3c-0x001bcde6)       422589      0.19%    100.00% # Number of instructions being monitored (Count)
system.cpu.exec_context.thread_0.numInstsMonitor::(08:0x00000000-0x00000000)            0      0.00%    100.00% # Number of instructions being monitored (Count)
system.cpu.exec_context.thread_0.numInstsMonitor::(09:0x00000000-0x00000000)            0      0.00%    100.00% # Number of instructions being monitored (Count)
system.cpu.exec_context.thread_0.numInstsMonitor::total    218978132                       # Number of instructions being monitored (Count)
system.cpu.exec_context.thread_0.numVecInstsMonitor::(00:0x00194ab0-0x00195196)     53525816     31.05%     31.05% # Number of vector instructions being monitored (Count)
system.cpu.exec_context.thread_0.numVecInstsMonitor::(01:0x001bc370-0x001bce14)     32624829     18.93%     49.97% # Number of vector instructions being monitored (Count)
system.cpu.exec_context.thread_0.numVecInstsMonitor::(02:0x00194ace-0x00194f4e)     44354688     25.73%     75.70% # Number of vector instructions being monitored (Count)
system.cpu.exec_context.thread_0.numVecInstsMonitor::(03:0x001bc3c4-0x001bcc54)     31406592     18.22%     93.92% # Number of vector instructions being monitored (Count)
system.cpu.exec_context.thread_0.numVecInstsMonitor::(04:0x00194f4e-0x00195092)      7589844      4.40%     98.32% # Number of vector instructions being monitored (Count)
system.cpu.exec_context.thread_0.numVecInstsMonitor::(05:0x001bcc54-0x001bcd3c)      1013376      0.59%     98.91% # Number of vector instructions being monitored (Count)
system.cpu.exec_context.thread_0.numVecInstsMonitor::(06:0x00195092-0x00195190)      1669538      0.97%     99.88% # Number of vector instructions being monitored (Count)
system.cpu.exec_context.thread_0.numVecInstsMonitor::(07:0x001bcd3c-0x001bcde6)       204861      0.12%    100.00% # Number of vector instructions being monitored (Count)
system.cpu.exec_context.thread_0.numVecInstsMonitor::(08:0x00000000-0x00000000)            0      0.00%    100.00% # Number of vector instructions being monitored (Count)
system.cpu.exec_context.thread_0.numVecInstsMonitor::(09:0x00000000-0x00000000)            0      0.00%    100.00% # Number of vector instructions being monitored (Count)
system.cpu.exec_context.thread_0.numVecInstsMonitor::total    172389544                       # Number of vector instructions being monitored (Count)
system.cpu.exec_context.thread_0.numIntRegReads    722497292                       # Number of times the integer registers were read (Count)
system.cpu.exec_context.thread_0.numIntRegWrites    314609646                       # Number of times the integer registers were written (Count)
system.cpu.exec_context.thread_0.numFpRegReads      2301138                       # Number of times the floating registers were read (Count)
system.cpu.exec_context.thread_0.numFpRegWrites      1130429                       # Number of times the floating registers were written (Count)
system.cpu.exec_context.thread_0.numVecRegReads     91974150                       # Number of times the vector registers were read (Count)
system.cpu.exec_context.thread_0.numVecRegWrites     86440624                       # Number of times the vector registers were written (Count)
system.cpu.exec_context.thread_0.numVecPredRegReads            0                       # Number of times the predicate registers were read (Count)
system.cpu.exec_context.thread_0.numVecPredRegWrites            0                       # Number of times the predicate registers were written (Count)
system.cpu.exec_context.thread_0.numMiscRegReads    163125712                       # Number of times the Misc registers were read (Count)
system.cpu.exec_context.thread_0.numMiscRegWrites     29635889                       # Number of times the Misc registers were written (Count)
system.cpu.exec_context.thread_0.numMemRefs    140020373                       # Number of memory refs (Count)
system.cpu.exec_context.thread_0.numLoadInsts     84075471                       # Number of load instructions (Count)
system.cpu.exec_context.thread_0.numStoreInsts     55944902                       # Number of store instructions (Count)
system.cpu.exec_context.thread_0.numIdleCycles     0.348369                       # Number of idle cycles (Cycle)
system.cpu.exec_context.thread_0.numBusyCycles 606887339.651631                       # Number of busy cycles (Cycle)
system.cpu.exec_context.thread_0.notIdleFraction     1.000000                       # Percentage of non-idle cycles (Ratio)
system.cpu.exec_context.thread_0.idleFraction     0.000000                       # Percentage of idle cycles (Ratio)
system.cpu.exec_context.thread_0.numBranches     72588851                       # Number of branches fetched (Count)
system.cpu.exec_context.thread_0.statExecutedInstType::No_OpClass       391079      0.07%      0.07% # Class of executed instruction. (Count)
system.cpu.exec_context.thread_0.statExecutedInstType::IntAlu    314124451     57.71%     57.79% # Class of executed instruction. (Count)
system.cpu.exec_context.thread_0.statExecutedInstType::IntMult      7266388      1.34%     59.12% # Class of executed instruction. (Count)
system.cpu.exec_context.thread_0.statExecutedInstType::IntDiv        12193      0.00%     59.12% # Class of executed instruction. (Count)
system.cpu.exec_context.thread_0.statExecutedInstType::FloatAdd       152043      0.03%     59.15% # Class of executed instruction. (Count)
system.cpu.exec_context.thread_0.statExecutedInstType::FloatCmp       389685      0.07%     59.22% # Class of executed instruction. (Count)
system.cpu.exec_context.thread_0.statExecutedInstType::FloatCvt       376650      0.07%     59.29% # Class of executed instruction. (Count)
system.cpu.exec_context.thread_0.statExecutedInstType::FloatMult        83656      0.02%     59.31% # Class of executed instruction. (Count)
system.cpu.exec_context.thread_0.statExecutedInstType::FloatMultAcc          448      0.00%     59.31% # Class of executed instruction. (Count)
system.cpu.exec_context.thread_0.statExecutedInstType::FloatDiv       205947      0.04%     59.34% # Class of executed instruction. (Count)
system.cpu.exec_context.thread_0.statExecutedInstType::FloatMisc       141097      0.03%     59.37% # Class of executed instruction. (Count)
system.cpu.exec_context.thread_0.statExecutedInstType::FloatSqrt            0      0.00%     59.37% # Class of executed instruction. (Count)
system.cpu.exec_context.thread_0.statExecutedInstType::SimdAdd            0      0.00%     59.37% # Class of executed instruction. (Count)
system.cpu.exec_context.thread_0.statExecutedInstType::SimdAddAcc            0      0.00%     59.37% # Class of executed instruction. (Count)
system.cpu.exec_context.thread_0.statExecutedInstType::SimdAlu            0      0.00%     59.37% # Class of executed instruction. (Count)
system.cpu.exec_context.thread_0.statExecutedInstType::SimdCmp            0      0.00%     59.37% # Class of executed instruction. (Count)
system.cpu.exec_context.thread_0.statExecutedInstType::SimdCvt            0      0.00%     59.37% # Class of executed instruction. (Count)
system.cpu.exec_context.thread_0.statExecutedInstType::SimdMisc            0      0.00%     59.37% # Class of executed instruction. (Count)
system.cpu.exec_context.thread_0.statExecutedInstType::SimdMult            0      0.00%     59.37% # Class of executed instruction. (Count)
system.cpu.exec_context.thread_0.statExecutedInstType::SimdMultAcc            0      0.00%     59.37% # Class of executed instruction. (Count)
system.cpu.exec_context.thread_0.statExecutedInstType::SimdShift            0      0.00%     59.37% # Class of executed instruction. (Count)
system.cpu.exec_context.thread_0.statExecutedInstType::SimdShiftAcc            0      0.00%     59.37% # Class of executed instruction. (Count)
system.cpu.exec_context.thread_0.statExecutedInstType::SimdDiv            0      0.00%     59.37% # Class of executed instruction. (Count)
system.cpu.exec_context.thread_0.statExecutedInstType::SimdSqrt            0      0.00%     59.37% # Class of executed instruction. (Count)
system.cpu.exec_context.thread_0.statExecutedInstType::SimdFloatAdd            0      0.00%     59.37% # Class of executed instruction. (Count)
system.cpu.exec_context.thread_0.statExecutedInstType::SimdFloatAlu            0      0.00%     59.37% # Class of executed instruction. (Count)
system.cpu.exec_context.thread_0.statExecutedInstType::SimdFloatCmp            0      0.00%     59.37% # Class of executed instruction. (Count)
system.cpu.exec_context.thread_0.statExecutedInstType::SimdFloatCvt            0      0.00%     59.37% # Class of executed instruction. (Count)
system.cpu.exec_context.thread_0.statExecutedInstType::SimdFloatDiv            0      0.00%     59.37% # Class of executed instruction. (Count)
system.cpu.exec_context.thread_0.statExecutedInstType::SimdFloatMisc            0      0.00%     59.37% # Class of executed instruction. (Count)
system.cpu.exec_context.thread_0.statExecutedInstType::SimdFloatMult            0      0.00%     59.37% # Class of executed instruction. (Count)
system.cpu.exec_context.thread_0.statExecutedInstType::SimdFloatMultAcc            0      0.00%     59.37% # Class of executed instruction. (Count)
system.cpu.exec_context.thread_0.statExecutedInstType::SimdFloatSqrt            0      0.00%     59.37% # Class of executed instruction. (Count)
system.cpu.exec_context.thread_0.statExecutedInstType::SimdReduceAdd            0      0.00%     59.37% # Class of executed instruction. (Count)
system.cpu.exec_context.thread_0.statExecutedInstType::SimdReduceAlu            0      0.00%     59.37% # Class of executed instruction. (Count)
system.cpu.exec_context.thread_0.statExecutedInstType::SimdReduceCmp            0      0.00%     59.37% # Class of executed instruction. (Count)
system.cpu.exec_context.thread_0.statExecutedInstType::SimdFloatReduceAdd            0      0.00%     59.37% # Class of executed instruction. (Count)
system.cpu.exec_context.thread_0.statExecutedInstType::SimdFloatReduceCmp            0      0.00%     59.37% # Class of executed instruction. (Count)
system.cpu.exec_context.thread_0.statExecutedInstType::SimdAes            0      0.00%     59.37% # Class of executed instruction. (Count)
system.cpu.exec_context.thread_0.statExecutedInstType::SimdAesMix            0      0.00%     59.37% # Class of executed instruction. (Count)
system.cpu.exec_context.thread_0.statExecutedInstType::SimdSha1Hash            0      0.00%     59.37% # Class of executed instruction. (Count)
system.cpu.exec_context.thread_0.statExecutedInstType::SimdSha1Hash2            0      0.00%     59.37% # Class of executed instruction. (Count)
system.cpu.exec_context.thread_0.statExecutedInstType::SimdSha256Hash            0      0.00%     59.37% # Class of executed instruction. (Count)
system.cpu.exec_context.thread_0.statExecutedInstType::SimdSha256Hash2            0      0.00%     59.37% # Class of executed instruction. (Count)
system.cpu.exec_context.thread_0.statExecutedInstType::SimdShaSigma2            0      0.00%     59.37% # Class of executed instruction. (Count)
system.cpu.exec_context.thread_0.statExecutedInstType::SimdShaSigma3            0      0.00%     59.37% # Class of executed instruction. (Count)
system.cpu.exec_context.thread_0.statExecutedInstType::SimdPredAlu            0      0.00%     59.37% # Class of executed instruction. (Count)
system.cpu.exec_context.thread_0.statExecutedInstType::MemRead     61963439     11.38%     70.75% # Class of executed instruction. (Count)
system.cpu.exec_context.thread_0.statExecutedInstType::MemWrite     53203831      9.77%     80.53% # Class of executed instruction. (Count)
system.cpu.exec_context.thread_0.statExecutedInstType::FloatMemRead       256045      0.05%     80.58% # Class of executed instruction. (Count)
system.cpu.exec_context.thread_0.statExecutedInstType::FloatMemWrite       237413      0.04%     80.62% # Class of executed instruction. (Count)
system.cpu.exec_context.thread_0.statExecutedInstType::IprAccess            0      0.00%     80.62% # Class of executed instruction. (Count)
system.cpu.exec_context.thread_0.statExecutedInstType::InstPrefetch            0      0.00%     80.62% # Class of executed instruction. (Count)
system.cpu.exec_context.thread_0.statExecutedInstType::VectorIndexedMemLoad            0      0.00%     80.62% # Class of executed instruction. (Count)
system.cpu.exec_context.thread_0.statExecutedInstType::VectorIndexedMemStore            0      0.00%     80.62% # Class of executed instruction. (Count)
system.cpu.exec_context.thread_0.statExecutedInstType::VectorStridedMemLoad            0      0.00%     80.62% # Class of executed instruction. (Count)
system.cpu.exec_context.thread_0.statExecutedInstType::VectorStridedMemStore            0      0.00%     80.62% # Class of executed instruction. (Count)
system.cpu.exec_context.thread_0.statExecutedInstType::VectorUnitStrideMemLoad     44044152      8.09%     88.71% # Class of executed instruction. (Count)
system.cpu.exec_context.thread_0.statExecutedInstType::VectorUnitStrideMemStore      4625286      0.85%     89.56% # Class of executed instruction. (Count)
system.cpu.exec_context.thread_0.statExecutedInstType::VectorOPIVI            0      0.00%     89.56% # Class of executed instruction. (Count)
system.cpu.exec_context.thread_0.statExecutedInstType::VectorOPIVISL       422904      0.08%     89.64% # Class of executed instruction. (Count)
system.cpu.exec_context.thread_0.statExecutedInstType::VectorVdVs2Rs1      7636834      1.40%     91.04% # Class of executed instruction. (Count)
system.cpu.exec_context.thread_0.statExecutedInstType::VectorVdVs2Rs1SL            0      0.00%     91.04% # Class of executed instruction. (Count)
system.cpu.exec_context.thread_0.statExecutedInstType::VectorVdVs2Fs1        38400      0.01%     91.05% # Class of executed instruction. (Count)
system.cpu.exec_context.thread_0.statExecutedInstType::VectorWideningVdVs2            0      0.00%     91.05% # Class of executed instruction. (Count)
system.cpu.exec_context.thread_0.statExecutedInstType::VectorNarrowingVV            0      0.00%     91.05% # Class of executed instruction. (Count)
system.cpu.exec_context.thread_0.statExecutedInstType::VectorNarrowingVI            0      0.00%     91.05% # Class of executed instruction. (Count)
system.cpu.exec_context.thread_0.statExecutedInstType::VectorNarrowingWX      3005928      0.55%     91.60% # Class of executed instruction. (Count)
system.cpu.exec_context.thread_0.statExecutedInstType::VectorWideningVX            0      0.00%     91.60% # Class of executed instruction. (Count)
system.cpu.exec_context.thread_0.statExecutedInstType::VectorWideningWV         5504      0.00%     91.60% # Class of executed instruction. (Count)
system.cpu.exec_context.thread_0.statExecutedInstType::VectorWideningVV        46592      0.01%     91.61% # Class of executed instruction. (Count)
system.cpu.exec_context.thread_0.statExecutedInstType::VectorVdVs2Vs1Op      7085428      1.30%     92.91% # Class of executed instruction. (Count)
system.cpu.exec_context.thread_0.statExecutedInstType::VectorAIVs1Vs2Vd     22577184      4.15%     97.06% # Class of executed instruction. (Count)
system.cpu.exec_context.thread_0.statExecutedInstType::VectorAINVs1Vs2Vd      8773632      1.61%     98.67% # Class of executed instruction. (Count)
system.cpu.exec_context.thread_0.statExecutedInstType::VectorAINLhVs1Vs2Vd            0      0.00%     98.67% # Class of executed instruction. (Count)
system.cpu.exec_context.thread_0.statExecutedInstType::VectorAILhVs1Vs2Vd            0      0.00%     98.67% # Class of executed instruction. (Count)
system.cpu.exec_context.thread_0.statExecutedInstType::VectorVRXUNARY0            0      0.00%     98.67% # Class of executed instruction. (Count)
system.cpu.exec_context.thread_0.statExecutedInstType::VectorVRFUNARY0            0      0.00%     98.67% # Class of executed instruction. (Count)
system.cpu.exec_context.thread_0.statExecutedInstType::VectorVWFUNARY0            0      0.00%     98.67% # Class of executed instruction. (Count)
system.cpu.exec_context.thread_0.statExecutedInstType::VectorVFUNARY0      3616568      0.66%     99.34% # Class of executed instruction. (Count)
system.cpu.exec_context.thread_0.statExecutedInstType::VectorVWXUNARY0            0      0.00%     99.34% # Class of executed instruction. (Count)
system.cpu.exec_context.thread_0.statExecutedInstType::VectorVMUNARY0            0      0.00%     99.34% # Class of executed instruction. (Count)
system.cpu.exec_context.thread_0.statExecutedInstType::VectorIntegerExtension      2270720      0.42%     99.76% # Class of executed instruction. (Count)
system.cpu.exec_context.thread_0.statExecutedInstType::VectorMaskRegisterVdVs2Vs1            0      0.00%     99.76% # Class of executed instruction. (Count)
system.cpu.exec_context.thread_0.statExecutedInstType::VectorMaskRegisterVdVs2            0      0.00%     99.76% # Class of executed instruction. (Count)
system.cpu.exec_context.thread_0.statExecutedInstType::VectorWholeRegisterMove            0      0.00%     99.76% # Class of executed instruction. (Count)
system.cpu.exec_context.thread_0.statExecutedInstType::VectorCfg      1331509      0.24%    100.00% # Class of executed instruction. (Count)
system.cpu.exec_context.thread_0.statExecutedInstType::total    544285006                       # Class of executed instruction. (Count)
system.cpu.exec_context.thread_0.statExecutedInstTypeMonitor::(00:0x00194ab0-0x00195196)No_OpClass            0      0.00%      0.00% # Class of executed instruction being monitored (Count)
system.cpu.exec_context.thread_0.statExecutedInstTypeMonitor::(00:0x00194ab0-0x00195196)IntAlu     13605741      6.21%      6.21% # Class of executed instruction being monitored (Count)
system.cpu.exec_context.thread_0.statExecutedInstTypeMonitor::(00:0x00194ab0-0x00195196)IntMult         3599      0.00%      6.21% # Class of executed instruction being monitored (Count)
system.cpu.exec_context.thread_0.statExecutedInstTypeMonitor::(00:0x00194ab0-0x00195196)IntDiv            0      0.00%      6.21% # Class of executed instruction being monitored (Count)
system.cpu.exec_context.thread_0.statExecutedInstTypeMonitor::(00:0x00194ab0-0x00195196)FloatAdd            0      0.00%      6.21% # Class of executed instruction being monitored (Count)
system.cpu.exec_context.thread_0.statExecutedInstTypeMonitor::(00:0x00194ab0-0x00195196)FloatCmp            0      0.00%      6.21% # Class of executed instruction being monitored (Count)
system.cpu.exec_context.thread_0.statExecutedInstTypeMonitor::(00:0x00194ab0-0x00195196)FloatCvt            0      0.00%      6.21% # Class of executed instruction being monitored (Count)
system.cpu.exec_context.thread_0.statExecutedInstTypeMonitor::(00:0x00194ab0-0x00195196)FloatMult            0      0.00%      6.21% # Class of executed instruction being monitored (Count)
system.cpu.exec_context.thread_0.statExecutedInstTypeMonitor::(00:0x00194ab0-0x00195196)FloatMultAcc            0      0.00%      6.21% # Class of executed instruction being monitored (Count)
system.cpu.exec_context.thread_0.statExecutedInstTypeMonitor::(00:0x00194ab0-0x00195196)FloatDiv            0      0.00%      6.21% # Class of executed instruction being monitored (Count)
system.cpu.exec_context.thread_0.statExecutedInstTypeMonitor::(00:0x00194ab0-0x00195196)FloatMisc            0      0.00%      6.21% # Class of executed instruction being monitored (Count)
system.cpu.exec_context.thread_0.statExecutedInstTypeMonitor::(00:0x00194ab0-0x00195196)FloatSqrt            0      0.00%      6.21% # Class of executed instruction being monitored (Count)
system.cpu.exec_context.thread_0.statExecutedInstTypeMonitor::(00:0x00194ab0-0x00195196)SimdAdd            0      0.00%      6.21% # Class of executed instruction being monitored (Count)
system.cpu.exec_context.thread_0.statExecutedInstTypeMonitor::(00:0x00194ab0-0x00195196)SimdAddAcc            0      0.00%      6.21% # Class of executed instruction being monitored (Count)
system.cpu.exec_context.thread_0.statExecutedInstTypeMonitor::(00:0x00194ab0-0x00195196)SimdAlu            0      0.00%      6.21% # Class of executed instruction being monitored (Count)
system.cpu.exec_context.thread_0.statExecutedInstTypeMonitor::(00:0x00194ab0-0x00195196)SimdCmp            0      0.00%      6.21% # Class of executed instruction being monitored (Count)
system.cpu.exec_context.thread_0.statExecutedInstTypeMonitor::(00:0x00194ab0-0x00195196)SimdCvt            0      0.00%      6.21% # Class of executed instruction being monitored (Count)
system.cpu.exec_context.thread_0.statExecutedInstTypeMonitor::(00:0x00194ab0-0x00195196)SimdMisc            0      0.00%      6.21% # Class of executed instruction being monitored (Count)
system.cpu.exec_context.thread_0.statExecutedInstTypeMonitor::(00:0x00194ab0-0x00195196)SimdMult            0      0.00%      6.21% # Class of executed instruction being monitored (Count)
system.cpu.exec_context.thread_0.statExecutedInstTypeMonitor::(00:0x00194ab0-0x00195196)SimdMultAcc            0      0.00%      6.21% # Class of executed instruction being monitored (Count)
system.cpu.exec_context.thread_0.statExecutedInstTypeMonitor::(00:0x00194ab0-0x00195196)SimdShift            0      0.00%      6.21% # Class of executed instruction being monitored (Count)
system.cpu.exec_context.thread_0.statExecutedInstTypeMonitor::(00:0x00194ab0-0x00195196)SimdShiftAcc            0      0.00%      6.21% # Class of executed instruction being monitored (Count)
system.cpu.exec_context.thread_0.statExecutedInstTypeMonitor::(00:0x00194ab0-0x00195196)SimdDiv            0      0.00%      6.21% # Class of executed instruction being monitored (Count)
system.cpu.exec_context.thread_0.statExecutedInstTypeMonitor::(00:0x00194ab0-0x00195196)SimdSqrt            0      0.00%      6.21% # Class of executed instruction being monitored (Count)
system.cpu.exec_context.thread_0.statExecutedInstTypeMonitor::(00:0x00194ab0-0x00195196)SimdFloatAdd            0      0.00%      6.21% # Class of executed instruction being monitored (Count)
system.cpu.exec_context.thread_0.statExecutedInstTypeMonitor::(00:0x00194ab0-0x00195196)SimdFloatAlu            0      0.00%      6.21% # Class of executed instruction being monitored (Count)
system.cpu.exec_context.thread_0.statExecutedInstTypeMonitor::(00:0x00194ab0-0x00195196)SimdFloatCmp            0      0.00%      6.21% # Class of executed instruction being monitored (Count)
system.cpu.exec_context.thread_0.statExecutedInstTypeMonitor::(00:0x00194ab0-0x00195196)SimdFloatCvt            0      0.00%      6.21% # Class of executed instruction being monitored (Count)
system.cpu.exec_context.thread_0.statExecutedInstTypeMonitor::(00:0x00194ab0-0x00195196)SimdFloatDiv            0      0.00%      6.21% # Class of executed instruction being monitored (Count)
system.cpu.exec_context.thread_0.statExecutedInstTypeMonitor::(00:0x00194ab0-0x00195196)SimdFloatMisc            0      0.00%      6.21% # Class of executed instruction being monitored (Count)
system.cpu.exec_context.thread_0.statExecutedInstTypeMonitor::(00:0x00194ab0-0x00195196)SimdFloatMult            0      0.00%      6.21% # Class of executed instruction being monitored (Count)
system.cpu.exec_context.thread_0.statExecutedInstTypeMonitor::(00:0x00194ab0-0x00195196)SimdFloatMultAcc            0      0.00%      6.21% # Class of executed instruction being monitored (Count)
system.cpu.exec_context.thread_0.statExecutedInstTypeMonitor::(00:0x00194ab0-0x00195196)SimdFloatSqrt            0      0.00%      6.21% # Class of executed instruction being monitored (Count)
system.cpu.exec_context.thread_0.statExecutedInstTypeMonitor::(00:0x00194ab0-0x00195196)SimdReduceAdd            0      0.00%      6.21% # Class of executed instruction being monitored (Count)
system.cpu.exec_context.thread_0.statExecutedInstTypeMonitor::(00:0x00194ab0-0x00195196)SimdReduceAlu            0      0.00%      6.21% # Class of executed instruction being monitored (Count)
system.cpu.exec_context.thread_0.statExecutedInstTypeMonitor::(00:0x00194ab0-0x00195196)SimdReduceCmp            0      0.00%      6.21% # Class of executed instruction being monitored (Count)
system.cpu.exec_context.thread_0.statExecutedInstTypeMonitor::(00:0x00194ab0-0x00195196)SimdFloatReduceAdd            0      0.00%      6.21% # Class of executed instruction being monitored (Count)
system.cpu.exec_context.thread_0.statExecutedInstTypeMonitor::(00:0x00194ab0-0x00195196)SimdFloatReduceCmp            0      0.00%      6.21% # Class of executed instruction being monitored (Count)
system.cpu.exec_context.thread_0.statExecutedInstTypeMonitor::(00:0x00194ab0-0x00195196)SimdAes            0      0.00%      6.21% # Class of executed instruction being monitored (Count)
system.cpu.exec_context.thread_0.statExecutedInstTypeMonitor::(00:0x00194ab0-0x00195196)SimdAesMix            0      0.00%      6.21% # Class of executed instruction being monitored (Count)
system.cpu.exec_context.thread_0.statExecutedInstTypeMonitor::(00:0x00194ab0-0x00195196)SimdSha1Hash            0      0.00%      6.21% # Class of executed instruction being monitored (Count)
system.cpu.exec_context.thread_0.statExecutedInstTypeMonitor::(00:0x00194ab0-0x00195196)SimdSha1Hash2            0      0.00%      6.21% # Class of executed instruction being monitored (Count)
system.cpu.exec_context.thread_0.statExecutedInstTypeMonitor::(00:0x00194ab0-0x00195196)SimdSha256Hash            0      0.00%      6.21% # Class of executed instruction being monitored (Count)
system.cpu.exec_context.thread_0.statExecutedInstTypeMonitor::(00:0x00194ab0-0x00195196)SimdSha256Hash2            0      0.00%      6.21% # Class of executed instruction being monitored (Count)
system.cpu.exec_context.thread_0.statExecutedInstTypeMonitor::(00:0x00194ab0-0x00195196)SimdShaSigma2            0      0.00%      6.21% # Class of executed instruction being monitored (Count)
system.cpu.exec_context.thread_0.statExecutedInstTypeMonitor::(00:0x00194ab0-0x00195196)SimdShaSigma3            0      0.00%      6.21% # Class of executed instruction being monitored (Count)
system.cpu.exec_context.thread_0.statExecutedInstTypeMonitor::(00:0x00194ab0-0x00195196)SimdPredAlu            0      0.00%      6.21% # Class of executed instruction being monitored (Count)
system.cpu.exec_context.thread_0.statExecutedInstTypeMonitor::(00:0x00194ab0-0x00195196)MemRead       143178      0.07%      6.28% # Class of executed instruction being monitored (Count)
system.cpu.exec_context.thread_0.statExecutedInstTypeMonitor::(00:0x00194ab0-0x00195196)MemWrite            0      0.00%      6.28% # Class of executed instruction being monitored (Count)
system.cpu.exec_context.thread_0.statExecutedInstTypeMonitor::(00:0x00194ab0-0x00195196)FloatMemRead            0      0.00%      6.28% # Class of executed instruction being monitored (Count)
system.cpu.exec_context.thread_0.statExecutedInstTypeMonitor::(00:0x00194ab0-0x00195196)FloatMemWrite            0      0.00%      6.28% # Class of executed instruction being monitored (Count)
system.cpu.exec_context.thread_0.statExecutedInstTypeMonitor::(00:0x00194ab0-0x00195196)IprAccess            0      0.00%      6.28% # Class of executed instruction being monitored (Count)
system.cpu.exec_context.thread_0.statExecutedInstTypeMonitor::(00:0x00194ab0-0x00195196)InstPrefetch            0      0.00%      6.28% # Class of executed instruction being monitored (Count)
system.cpu.exec_context.thread_0.statExecutedInstTypeMonitor::(00:0x00194ab0-0x00195196)VectorIndexedMemLoad            0      0.00%      6.28% # Class of executed instruction being monitored (Count)
system.cpu.exec_context.thread_0.statExecutedInstTypeMonitor::(00:0x00194ab0-0x00195196)VectorIndexedMemStore            0      0.00%      6.28% # Class of executed instruction being monitored (Count)
system.cpu.exec_context.thread_0.statExecutedInstTypeMonitor::(00:0x00194ab0-0x00195196)VectorStridedMemLoad            0      0.00%      6.28% # Class of executed instruction being monitored (Count)
system.cpu.exec_context.thread_0.statExecutedInstTypeMonitor::(00:0x00194ab0-0x00195196)VectorStridedMemStore            0      0.00%      6.28% # Class of executed instruction being monitored (Count)
system.cpu.exec_context.thread_0.statExecutedInstTypeMonitor::(00:0x00194ab0-0x00195196)VectorUnitStrideMemLoad     21928128     10.01%     16.29% # Class of executed instruction being monitored (Count)
system.cpu.exec_context.thread_0.statExecutedInstTypeMonitor::(00:0x00194ab0-0x00195196)VectorUnitStrideMemStore       522236      0.24%     16.53% # Class of executed instruction being monitored (Count)
system.cpu.exec_context.thread_0.statExecutedInstTypeMonitor::(00:0x00194ab0-0x00195196)VectorOPIVI            0      0.00%     16.53% # Class of executed instruction being monitored (Count)
system.cpu.exec_context.thread_0.statExecutedInstTypeMonitor::(00:0x00194ab0-0x00195196)VectorOPIVISL       353016      0.16%     16.69% # Class of executed instruction being monitored (Count)
system.cpu.exec_context.thread_0.statExecutedInstTypeMonitor::(00:0x00194ab0-0x00195196)VectorVdVs2Rs1      2118096      0.97%     17.66% # Class of executed instruction being monitored (Count)
system.cpu.exec_context.thread_0.statExecutedInstTypeMonitor::(00:0x00194ab0-0x00195196)VectorVdVs2Rs1SL            0      0.00%     17.66% # Class of executed instruction being monitored (Count)
system.cpu.exec_context.thread_0.statExecutedInstTypeMonitor::(00:0x00194ab0-0x00195196)VectorVdVs2Fs1            0      0.00%     17.66% # Class of executed instruction being monitored (Count)
system.cpu.exec_context.thread_0.statExecutedInstTypeMonitor::(00:0x00194ab0-0x00195196)VectorWideningVdVs2            0      0.00%     17.66% # Class of executed instruction being monitored (Count)
system.cpu.exec_context.thread_0.statExecutedInstTypeMonitor::(00:0x00194ab0-0x00195196)VectorNarrowingVV            0      0.00%     17.66% # Class of executed instruction being monitored (Count)
system.cpu.exec_context.thread_0.statExecutedInstTypeMonitor::(00:0x00194ab0-0x00195196)VectorNarrowingVI            0      0.00%     17.66% # Class of executed instruction being monitored (Count)
system.cpu.exec_context.thread_0.statExecutedInstTypeMonitor::(00:0x00194ab0-0x00195196)VectorNarrowingWX      1059048      0.48%     18.14% # Class of executed instruction being monitored (Count)
system.cpu.exec_context.thread_0.statExecutedInstTypeMonitor::(00:0x00194ab0-0x00195196)VectorWideningVX            0      0.00%     18.14% # Class of executed instruction being monitored (Count)
system.cpu.exec_context.thread_0.statExecutedInstTypeMonitor::(00:0x00194ab0-0x00195196)VectorWideningWV            0      0.00%     18.14% # Class of executed instruction being monitored (Count)
system.cpu.exec_context.thread_0.statExecutedInstTypeMonitor::(00:0x00194ab0-0x00195196)VectorWideningVV            0      0.00%     18.14% # Class of executed instruction being monitored (Count)
system.cpu.exec_context.thread_0.statExecutedInstTypeMonitor::(00:0x00194ab0-0x00195196)VectorVdVs2Vs1Op      6177780      2.82%     20.97% # Class of executed instruction being monitored (Count)
system.cpu.exec_context.thread_0.statExecutedInstTypeMonitor::(00:0x00194ab0-0x00195196)VectorAIVs1Vs2Vd     18190368      8.31%     29.27% # Class of executed instruction being monitored (Count)
system.cpu.exec_context.thread_0.statExecutedInstTypeMonitor::(00:0x00194ab0-0x00195196)VectorAINVs1Vs2Vd            0      0.00%     29.27% # Class of executed instruction being monitored (Count)
system.cpu.exec_context.thread_0.statExecutedInstTypeMonitor::(00:0x00194ab0-0x00195196)VectorAINLhVs1Vs2Vd            0      0.00%     29.27% # Class of executed instruction being monitored (Count)
system.cpu.exec_context.thread_0.statExecutedInstTypeMonitor::(00:0x00194ab0-0x00195196)VectorAILhVs1Vs2Vd            0      0.00%     29.27% # Class of executed instruction being monitored (Count)
system.cpu.exec_context.thread_0.statExecutedInstTypeMonitor::(00:0x00194ab0-0x00195196)VectorVRXUNARY0            0      0.00%     29.27% # Class of executed instruction being monitored (Count)
system.cpu.exec_context.thread_0.statExecutedInstTypeMonitor::(00:0x00194ab0-0x00195196)VectorVRFUNARY0            0      0.00%     29.27% # Class of executed instruction being monitored (Count)
system.cpu.exec_context.thread_0.statExecutedInstTypeMonitor::(00:0x00194ab0-0x00195196)VectorVWFUNARY0            0      0.00%     29.27% # Class of executed instruction being monitored (Count)
system.cpu.exec_context.thread_0.statExecutedInstTypeMonitor::(00:0x00194ab0-0x00195196)VectorVFUNARY0      3177144      1.45%     30.72% # Class of executed instruction being monitored (Count)
system.cpu.exec_context.thread_0.statExecutedInstTypeMonitor::(00:0x00194ab0-0x00195196)VectorVWXUNARY0            0      0.00%     30.72% # Class of executed instruction being monitored (Count)
system.cpu.exec_context.thread_0.statExecutedInstTypeMonitor::(00:0x00194ab0-0x00195196)VectorVMUNARY0            0      0.00%     30.72% # Class of executed instruction being monitored (Count)
system.cpu.exec_context.thread_0.statExecutedInstTypeMonitor::(00:0x00194ab0-0x00195196)VectorIntegerExtension            0      0.00%     30.72% # Class of executed instruction being monitored (Count)
system.cpu.exec_context.thread_0.statExecutedInstTypeMonitor::(00:0x00194ab0-0x00195196)VectorMaskRegisterVdVs2Vs1            0      0.00%     30.72% # Class of executed instruction being monitored (Count)
system.cpu.exec_context.thread_0.statExecutedInstTypeMonitor::(00:0x00194ab0-0x00195196)VectorMaskRegisterVdVs2            0      0.00%     30.72% # Class of executed instruction being monitored (Count)
system.cpu.exec_context.thread_0.statExecutedInstTypeMonitor::(00:0x00194ab0-0x00195196)VectorWholeRegisterMove            0      0.00%     30.72% # Class of executed instruction being monitored (Count)
system.cpu.exec_context.thread_0.statExecutedInstTypeMonitor::(00:0x00194ab0-0x00195196)VectorCfg       353016      0.16%     30.88% # Class of executed instruction being monitored (Count)
system.cpu.exec_context.thread_0.statExecutedInstTypeMonitor::(01:0x001bc370-0x001bce14)No_OpClass            0      0.00%     30.88% # Class of executed instruction being monitored (Count)
system.cpu.exec_context.thread_0.statExecutedInstTypeMonitor::(01:0x001bc370-0x001bce14)IntAlu      9177686      4.19%     35.08% # Class of executed instruction being monitored (Count)
system.cpu.exec_context.thread_0.statExecutedInstTypeMonitor::(01:0x001bc370-0x001bce14)IntMult         1323      0.00%     35.08% # Class of executed instruction being monitored (Count)
system.cpu.exec_context.thread_0.statExecutedInstTypeMonitor::(01:0x001bc370-0x001bce14)IntDiv            0      0.00%     35.08% # Class of executed instruction being monitored (Count)
system.cpu.exec_context.thread_0.statExecutedInstTypeMonitor::(01:0x001bc370-0x001bce14)FloatAdd            0      0.00%     35.08% # Class of executed instruction being monitored (Count)
system.cpu.exec_context.thread_0.statExecutedInstTypeMonitor::(01:0x001bc370-0x001bce14)FloatCmp            0      0.00%     35.08% # Class of executed instruction being monitored (Count)
system.cpu.exec_context.thread_0.statExecutedInstTypeMonitor::(01:0x001bc370-0x001bce14)FloatCvt            0      0.00%     35.08% # Class of executed instruction being monitored (Count)
system.cpu.exec_context.thread_0.statExecutedInstTypeMonitor::(01:0x001bc370-0x001bce14)FloatMult            0      0.00%     35.08% # Class of executed instruction being monitored (Count)
system.cpu.exec_context.thread_0.statExecutedInstTypeMonitor::(01:0x001bc370-0x001bce14)FloatMultAcc            0      0.00%     35.08% # Class of executed instruction being monitored (Count)
system.cpu.exec_context.thread_0.statExecutedInstTypeMonitor::(01:0x001bc370-0x001bce14)FloatDiv            0      0.00%     35.08% # Class of executed instruction being monitored (Count)
system.cpu.exec_context.thread_0.statExecutedInstTypeMonitor::(01:0x001bc370-0x001bce14)FloatMisc            0      0.00%     35.08% # Class of executed instruction being monitored (Count)
system.cpu.exec_context.thread_0.statExecutedInstTypeMonitor::(01:0x001bc370-0x001bce14)FloatSqrt            0      0.00%     35.08% # Class of executed instruction being monitored (Count)
system.cpu.exec_context.thread_0.statExecutedInstTypeMonitor::(01:0x001bc370-0x001bce14)SimdAdd            0      0.00%     35.08% # Class of executed instruction being monitored (Count)
system.cpu.exec_context.thread_0.statExecutedInstTypeMonitor::(01:0x001bc370-0x001bce14)SimdAddAcc            0      0.00%     35.08% # Class of executed instruction being monitored (Count)
system.cpu.exec_context.thread_0.statExecutedInstTypeMonitor::(01:0x001bc370-0x001bce14)SimdAlu            0      0.00%     35.08% # Class of executed instruction being monitored (Count)
system.cpu.exec_context.thread_0.statExecutedInstTypeMonitor::(01:0x001bc370-0x001bce14)SimdCmp            0      0.00%     35.08% # Class of executed instruction being monitored (Count)
system.cpu.exec_context.thread_0.statExecutedInstTypeMonitor::(01:0x001bc370-0x001bce14)SimdCvt            0      0.00%     35.08% # Class of executed instruction being monitored (Count)
system.cpu.exec_context.thread_0.statExecutedInstTypeMonitor::(01:0x001bc370-0x001bce14)SimdMisc            0      0.00%     35.08% # Class of executed instruction being monitored (Count)
system.cpu.exec_context.thread_0.statExecutedInstTypeMonitor::(01:0x001bc370-0x001bce14)SimdMult            0      0.00%     35.08% # Class of executed instruction being monitored (Count)
system.cpu.exec_context.thread_0.statExecutedInstTypeMonitor::(01:0x001bc370-0x001bce14)SimdMultAcc            0      0.00%     35.08% # Class of executed instruction being monitored (Count)
system.cpu.exec_context.thread_0.statExecutedInstTypeMonitor::(01:0x001bc370-0x001bce14)SimdShift            0      0.00%     35.08% # Class of executed instruction being monitored (Count)
system.cpu.exec_context.thread_0.statExecutedInstTypeMonitor::(01:0x001bc370-0x001bce14)SimdShiftAcc            0      0.00%     35.08% # Class of executed instruction being monitored (Count)
system.cpu.exec_context.thread_0.statExecutedInstTypeMonitor::(01:0x001bc370-0x001bce14)SimdDiv            0      0.00%     35.08% # Class of executed instruction being monitored (Count)
system.cpu.exec_context.thread_0.statExecutedInstTypeMonitor::(01:0x001bc370-0x001bce14)SimdSqrt            0      0.00%     35.08% # Class of executed instruction being monitored (Count)
system.cpu.exec_context.thread_0.statExecutedInstTypeMonitor::(01:0x001bc370-0x001bce14)SimdFloatAdd            0      0.00%     35.08% # Class of executed instruction being monitored (Count)
system.cpu.exec_context.thread_0.statExecutedInstTypeMonitor::(01:0x001bc370-0x001bce14)SimdFloatAlu            0      0.00%     35.08% # Class of executed instruction being monitored (Count)
system.cpu.exec_context.thread_0.statExecutedInstTypeMonitor::(01:0x001bc370-0x001bce14)SimdFloatCmp            0      0.00%     35.08% # Class of executed instruction being monitored (Count)
system.cpu.exec_context.thread_0.statExecutedInstTypeMonitor::(01:0x001bc370-0x001bce14)SimdFloatCvt            0      0.00%     35.08% # Class of executed instruction being monitored (Count)
system.cpu.exec_context.thread_0.statExecutedInstTypeMonitor::(01:0x001bc370-0x001bce14)SimdFloatDiv            0      0.00%     35.08% # Class of executed instruction being monitored (Count)
system.cpu.exec_context.thread_0.statExecutedInstTypeMonitor::(01:0x001bc370-0x001bce14)SimdFloatMisc            0      0.00%     35.08% # Class of executed instruction being monitored (Count)
system.cpu.exec_context.thread_0.statExecutedInstTypeMonitor::(01:0x001bc370-0x001bce14)SimdFloatMult            0      0.00%     35.08% # Class of executed instruction being monitored (Count)
system.cpu.exec_context.thread_0.statExecutedInstTypeMonitor::(01:0x001bc370-0x001bce14)SimdFloatMultAcc            0      0.00%     35.08% # Class of executed instruction being monitored (Count)
system.cpu.exec_context.thread_0.statExecutedInstTypeMonitor::(01:0x001bc370-0x001bce14)SimdFloatSqrt            0      0.00%     35.08% # Class of executed instruction being monitored (Count)
system.cpu.exec_context.thread_0.statExecutedInstTypeMonitor::(01:0x001bc370-0x001bce14)SimdReduceAdd            0      0.00%     35.08% # Class of executed instruction being monitored (Count)
system.cpu.exec_context.thread_0.statExecutedInstTypeMonitor::(01:0x001bc370-0x001bce14)SimdReduceAlu            0      0.00%     35.08% # Class of executed instruction being monitored (Count)
system.cpu.exec_context.thread_0.statExecutedInstTypeMonitor::(01:0x001bc370-0x001bce14)SimdReduceCmp            0      0.00%     35.08% # Class of executed instruction being monitored (Count)
system.cpu.exec_context.thread_0.statExecutedInstTypeMonitor::(01:0x001bc370-0x001bce14)SimdFloatReduceAdd            0      0.00%     35.08% # Class of executed instruction being monitored (Count)
system.cpu.exec_context.thread_0.statExecutedInstTypeMonitor::(01:0x001bc370-0x001bce14)SimdFloatReduceCmp            0      0.00%     35.08% # Class of executed instruction being monitored (Count)
system.cpu.exec_context.thread_0.statExecutedInstTypeMonitor::(01:0x001bc370-0x001bce14)SimdAes            0      0.00%     35.08% # Class of executed instruction being monitored (Count)
system.cpu.exec_context.thread_0.statExecutedInstTypeMonitor::(01:0x001bc370-0x001bce14)SimdAesMix            0      0.00%     35.08% # Class of executed instruction being monitored (Count)
system.cpu.exec_context.thread_0.statExecutedInstTypeMonitor::(01:0x001bc370-0x001bce14)SimdSha1Hash            0      0.00%     35.08% # Class of executed instruction being monitored (Count)
system.cpu.exec_context.thread_0.statExecutedInstTypeMonitor::(01:0x001bc370-0x001bce14)SimdSha1Hash2            0      0.00%     35.08% # Class of executed instruction being monitored (Count)
system.cpu.exec_context.thread_0.statExecutedInstTypeMonitor::(01:0x001bc370-0x001bce14)SimdSha256Hash            0      0.00%     35.08% # Class of executed instruction being monitored (Count)
system.cpu.exec_context.thread_0.statExecutedInstTypeMonitor::(01:0x001bc370-0x001bce14)SimdSha256Hash2            0      0.00%     35.08% # Class of executed instruction being monitored (Count)
system.cpu.exec_context.thread_0.statExecutedInstTypeMonitor::(01:0x001bc370-0x001bce14)SimdShaSigma2            0      0.00%     35.08% # Class of executed instruction being monitored (Count)
system.cpu.exec_context.thread_0.statExecutedInstTypeMonitor::(01:0x001bc370-0x001bce14)SimdShaSigma3            0      0.00%     35.08% # Class of executed instruction being monitored (Count)
system.cpu.exec_context.thread_0.statExecutedInstTypeMonitor::(01:0x001bc370-0x001bce14)SimdPredAlu            0      0.00%     35.08% # Class of executed instruction being monitored (Count)
system.cpu.exec_context.thread_0.statExecutedInstTypeMonitor::(01:0x001bc370-0x001bce14)MemRead        35112      0.02%     35.09% # Class of executed instruction being monitored (Count)
system.cpu.exec_context.thread_0.statExecutedInstTypeMonitor::(01:0x001bc370-0x001bce14)MemWrite         4606      0.00%     35.09% # Class of executed instruction being monitored (Count)
system.cpu.exec_context.thread_0.statExecutedInstTypeMonitor::(01:0x001bc370-0x001bce14)FloatMemRead            0      0.00%     35.09% # Class of executed instruction being monitored (Count)
system.cpu.exec_context.thread_0.statExecutedInstTypeMonitor::(01:0x001bc370-0x001bce14)FloatMemWrite            0      0.00%     35.09% # Class of executed instruction being monitored (Count)
system.cpu.exec_context.thread_0.statExecutedInstTypeMonitor::(01:0x001bc370-0x001bce14)IprAccess            0      0.00%     35.09% # Class of executed instruction being monitored (Count)
system.cpu.exec_context.thread_0.statExecutedInstTypeMonitor::(01:0x001bc370-0x001bce14)InstPrefetch            0      0.00%     35.09% # Class of executed instruction being monitored (Count)
system.cpu.exec_context.thread_0.statExecutedInstTypeMonitor::(01:0x001bc370-0x001bce14)VectorIndexedMemLoad            0      0.00%     35.09% # Class of executed instruction being monitored (Count)
system.cpu.exec_context.thread_0.statExecutedInstTypeMonitor::(01:0x001bc370-0x001bce14)VectorIndexedMemStore            0      0.00%     35.09% # Class of executed instruction being monitored (Count)
system.cpu.exec_context.thread_0.statExecutedInstTypeMonitor::(01:0x001bc370-0x001bce14)VectorStridedMemLoad            0      0.00%     35.09% # Class of executed instruction being monitored (Count)
system.cpu.exec_context.thread_0.statExecutedInstTypeMonitor::(01:0x001bc370-0x001bce14)VectorStridedMemStore            0      0.00%     35.09% # Class of executed instruction being monitored (Count)
system.cpu.exec_context.thread_0.statExecutedInstTypeMonitor::(01:0x001bc370-0x001bce14)VectorUnitStrideMemLoad     17687040      8.08%     43.17% # Class of executed instruction being monitored (Count)
system.cpu.exec_context.thread_0.statExecutedInstTypeMonitor::(01:0x001bc370-0x001bce14)VectorUnitStrideMemStore        65085      0.03%     43.20% # Class of executed instruction being monitored (Count)
system.cpu.exec_context.thread_0.statExecutedInstTypeMonitor::(01:0x001bc370-0x001bce14)VectorOPIVI            0      0.00%     43.20% # Class of executed instruction being monitored (Count)
system.cpu.exec_context.thread_0.statExecutedInstTypeMonitor::(01:0x001bc370-0x001bce14)VectorOPIVISL        69888      0.03%     43.23% # Class of executed instruction being monitored (Count)
system.cpu.exec_context.thread_0.statExecutedInstTypeMonitor::(01:0x001bc370-0x001bce14)VectorVdVs2Rs1       279552      0.13%     43.36% # Class of executed instruction being monitored (Count)
system.cpu.exec_context.thread_0.statExecutedInstTypeMonitor::(01:0x001bc370-0x001bce14)VectorVdVs2Rs1SL            0      0.00%     43.36% # Class of executed instruction being monitored (Count)
system.cpu.exec_context.thread_0.statExecutedInstTypeMonitor::(01:0x001bc370-0x001bce14)VectorVdVs2Fs1            0      0.00%     43.36% # Class of executed instruction being monitored (Count)
system.cpu.exec_context.thread_0.statExecutedInstTypeMonitor::(01:0x001bc370-0x001bce14)VectorWideningVdVs2            0      0.00%     43.36% # Class of executed instruction being monitored (Count)
system.cpu.exec_context.thread_0.statExecutedInstTypeMonitor::(01:0x001bc370-0x001bce14)VectorNarrowingVV            0      0.00%     43.36% # Class of executed instruction being monitored (Count)
system.cpu.exec_context.thread_0.statExecutedInstTypeMonitor::(01:0x001bc370-0x001bce14)VectorNarrowingVI            0      0.00%     43.36% # Class of executed instruction being monitored (Count)
system.cpu.exec_context.thread_0.statExecutedInstTypeMonitor::(01:0x001bc370-0x001bce14)VectorNarrowingWX       139776      0.06%     43.43% # Class of executed instruction being monitored (Count)
system.cpu.exec_context.thread_0.statExecutedInstTypeMonitor::(01:0x001bc370-0x001bce14)VectorWideningVX            0      0.00%     43.43% # Class of executed instruction being monitored (Count)
system.cpu.exec_context.thread_0.statExecutedInstTypeMonitor::(01:0x001bc370-0x001bce14)VectorWideningWV            0      0.00%     43.43% # Class of executed instruction being monitored (Count)
system.cpu.exec_context.thread_0.statExecutedInstTypeMonitor::(01:0x001bc370-0x001bce14)VectorWideningVV            0      0.00%     43.43% # Class of executed instruction being monitored (Count)
system.cpu.exec_context.thread_0.statExecutedInstTypeMonitor::(01:0x001bc370-0x001bce14)VectorVdVs2Vs1Op       803712      0.37%     43.79% # Class of executed instruction being monitored (Count)
system.cpu.exec_context.thread_0.statExecutedInstTypeMonitor::(01:0x001bc370-0x001bce14)VectorAIVs1Vs2Vd      4386816      2.00%     45.80% # Class of executed instruction being monitored (Count)
system.cpu.exec_context.thread_0.statExecutedInstTypeMonitor::(01:0x001bc370-0x001bce14)VectorAINVs1Vs2Vd      8773632      4.01%     49.80% # Class of executed instruction being monitored (Count)
system.cpu.exec_context.thread_0.statExecutedInstTypeMonitor::(01:0x001bc370-0x001bce14)VectorAINLhVs1Vs2Vd            0      0.00%     49.80% # Class of executed instruction being monitored (Count)
system.cpu.exec_context.thread_0.statExecutedInstTypeMonitor::(01:0x001bc370-0x001bce14)VectorAILhVs1Vs2Vd            0      0.00%     49.80% # Class of executed instruction being monitored (Count)
system.cpu.exec_context.thread_0.statExecutedInstTypeMonitor::(01:0x001bc370-0x001bce14)VectorVRXUNARY0            0      0.00%     49.80% # Class of executed instruction being monitored (Count)
system.cpu.exec_context.thread_0.statExecutedInstTypeMonitor::(01:0x001bc370-0x001bce14)VectorVRFUNARY0            0      0.00%     49.80% # Class of executed instruction being monitored (Count)
system.cpu.exec_context.thread_0.statExecutedInstTypeMonitor::(01:0x001bc370-0x001bce14)VectorVWFUNARY0            0      0.00%     49.80% # Class of executed instruction being monitored (Count)
system.cpu.exec_context.thread_0.statExecutedInstTypeMonitor::(01:0x001bc370-0x001bce14)VectorVFUNARY0       419328      0.19%     49.99% # Class of executed instruction being monitored (Count)
system.cpu.exec_context.thread_0.statExecutedInstTypeMonitor::(01:0x001bc370-0x001bce14)VectorVWXUNARY0            0      0.00%     49.99% # Class of executed instruction being monitored (Count)
system.cpu.exec_context.thread_0.statExecutedInstTypeMonitor::(01:0x001bc370-0x001bce14)VectorVMUNARY0            0      0.00%     49.99% # Class of executed instruction being monitored (Count)
system.cpu.exec_context.thread_0.statExecutedInstTypeMonitor::(01:0x001bc370-0x001bce14)VectorIntegerExtension            0      0.00%     49.99% # Class of executed instruction being monitored (Count)
system.cpu.exec_context.thread_0.statExecutedInstTypeMonitor::(01:0x001bc370-0x001bce14)VectorMaskRegisterVdVs2Vs1            0      0.00%     49.99% # Class of executed instruction being monitored (Count)
system.cpu.exec_context.thread_0.statExecutedInstTypeMonitor::(01:0x001bc370-0x001bce14)VectorMaskRegisterVdVs2            0      0.00%     49.99% # Class of executed instruction being monitored (Count)
system.cpu.exec_context.thread_0.statExecutedInstTypeMonitor::(01:0x001bc370-0x001bce14)VectorWholeRegisterMove            0      0.00%     49.99% # Class of executed instruction being monitored (Count)
system.cpu.exec_context.thread_0.statExecutedInstTypeMonitor::(01:0x001bc370-0x001bce14)VectorCfg        69888      0.03%     50.03% # Class of executed instruction being monitored (Count)
system.cpu.exec_context.thread_0.statExecutedInstTypeMonitor::(02:0x00194ace-0x00194f4e)No_OpClass            0      0.00%     50.03% # Class of executed instruction being monitored (Count)
system.cpu.exec_context.thread_0.statExecutedInstTypeMonitor::(02:0x00194ace-0x00194f4e)IntAlu     11776583      5.38%     55.40% # Class of executed instruction being monitored (Count)
system.cpu.exec_context.thread_0.statExecutedInstTypeMonitor::(02:0x00194ace-0x00194f4e)IntMult            0      0.00%     55.40% # Class of executed instruction being monitored (Count)
system.cpu.exec_context.thread_0.statExecutedInstTypeMonitor::(02:0x00194ace-0x00194f4e)IntDiv            0      0.00%     55.40% # Class of executed instruction being monitored (Count)
system.cpu.exec_context.thread_0.statExecutedInstTypeMonitor::(02:0x00194ace-0x00194f4e)FloatAdd            0      0.00%     55.40% # Class of executed instruction being monitored (Count)
system.cpu.exec_context.thread_0.statExecutedInstTypeMonitor::(02:0x00194ace-0x00194f4e)FloatCmp            0      0.00%     55.40% # Class of executed instruction being monitored (Count)
system.cpu.exec_context.thread_0.statExecutedInstTypeMonitor::(02:0x00194ace-0x00194f4e)FloatCvt            0      0.00%     55.40% # Class of executed instruction being monitored (Count)
system.cpu.exec_context.thread_0.statExecutedInstTypeMonitor::(02:0x00194ace-0x00194f4e)FloatMult            0      0.00%     55.40% # Class of executed instruction being monitored (Count)
system.cpu.exec_context.thread_0.statExecutedInstTypeMonitor::(02:0x00194ace-0x00194f4e)FloatMultAcc            0      0.00%     55.40% # Class of executed instruction being monitored (Count)
system.cpu.exec_context.thread_0.statExecutedInstTypeMonitor::(02:0x00194ace-0x00194f4e)FloatDiv            0      0.00%     55.40% # Class of executed instruction being monitored (Count)
system.cpu.exec_context.thread_0.statExecutedInstTypeMonitor::(02:0x00194ace-0x00194f4e)FloatMisc            0      0.00%     55.40% # Class of executed instruction being monitored (Count)
system.cpu.exec_context.thread_0.statExecutedInstTypeMonitor::(02:0x00194ace-0x00194f4e)FloatSqrt            0      0.00%     55.40% # Class of executed instruction being monitored (Count)
system.cpu.exec_context.thread_0.statExecutedInstTypeMonitor::(02:0x00194ace-0x00194f4e)SimdAdd            0      0.00%     55.40% # Class of executed instruction being monitored (Count)
system.cpu.exec_context.thread_0.statExecutedInstTypeMonitor::(02:0x00194ace-0x00194f4e)SimdAddAcc            0      0.00%     55.40% # Class of executed instruction being monitored (Count)
system.cpu.exec_context.thread_0.statExecutedInstTypeMonitor::(02:0x00194ace-0x00194f4e)SimdAlu            0      0.00%     55.40% # Class of executed instruction being monitored (Count)
system.cpu.exec_context.thread_0.statExecutedInstTypeMonitor::(02:0x00194ace-0x00194f4e)SimdCmp            0      0.00%     55.40% # Class of executed instruction being monitored (Count)
system.cpu.exec_context.thread_0.statExecutedInstTypeMonitor::(02:0x00194ace-0x00194f4e)SimdCvt            0      0.00%     55.40% # Class of executed instruction being monitored (Count)
system.cpu.exec_context.thread_0.statExecutedInstTypeMonitor::(02:0x00194ace-0x00194f4e)SimdMisc            0      0.00%     55.40% # Class of executed instruction being monitored (Count)
system.cpu.exec_context.thread_0.statExecutedInstTypeMonitor::(02:0x00194ace-0x00194f4e)SimdMult            0      0.00%     55.40% # Class of executed instruction being monitored (Count)
system.cpu.exec_context.thread_0.statExecutedInstTypeMonitor::(02:0x00194ace-0x00194f4e)SimdMultAcc            0      0.00%     55.40% # Class of executed instruction being monitored (Count)
system.cpu.exec_context.thread_0.statExecutedInstTypeMonitor::(02:0x00194ace-0x00194f4e)SimdShift            0      0.00%     55.40% # Class of executed instruction being monitored (Count)
system.cpu.exec_context.thread_0.statExecutedInstTypeMonitor::(02:0x00194ace-0x00194f4e)SimdShiftAcc            0      0.00%     55.40% # Class of executed instruction being monitored (Count)
system.cpu.exec_context.thread_0.statExecutedInstTypeMonitor::(02:0x00194ace-0x00194f4e)SimdDiv            0      0.00%     55.40% # Class of executed instruction being monitored (Count)
system.cpu.exec_context.thread_0.statExecutedInstTypeMonitor::(02:0x00194ace-0x00194f4e)SimdSqrt            0      0.00%     55.40% # Class of executed instruction being monitored (Count)
system.cpu.exec_context.thread_0.statExecutedInstTypeMonitor::(02:0x00194ace-0x00194f4e)SimdFloatAdd            0      0.00%     55.40% # Class of executed instruction being monitored (Count)
system.cpu.exec_context.thread_0.statExecutedInstTypeMonitor::(02:0x00194ace-0x00194f4e)SimdFloatAlu            0      0.00%     55.40% # Class of executed instruction being monitored (Count)
system.cpu.exec_context.thread_0.statExecutedInstTypeMonitor::(02:0x00194ace-0x00194f4e)SimdFloatCmp            0      0.00%     55.40% # Class of executed instruction being monitored (Count)
system.cpu.exec_context.thread_0.statExecutedInstTypeMonitor::(02:0x00194ace-0x00194f4e)SimdFloatCvt            0      0.00%     55.40% # Class of executed instruction being monitored (Count)
system.cpu.exec_context.thread_0.statExecutedInstTypeMonitor::(02:0x00194ace-0x00194f4e)SimdFloatDiv            0      0.00%     55.40% # Class of executed instruction being monitored (Count)
system.cpu.exec_context.thread_0.statExecutedInstTypeMonitor::(02:0x00194ace-0x00194f4e)SimdFloatMisc            0      0.00%     55.40% # Class of executed instruction being monitored (Count)
system.cpu.exec_context.thread_0.statExecutedInstTypeMonitor::(02:0x00194ace-0x00194f4e)SimdFloatMult            0      0.00%     55.40% # Class of executed instruction being monitored (Count)
system.cpu.exec_context.thread_0.statExecutedInstTypeMonitor::(02:0x00194ace-0x00194f4e)SimdFloatMultAcc            0      0.00%     55.40% # Class of executed instruction being monitored (Count)
system.cpu.exec_context.thread_0.statExecutedInstTypeMonitor::(02:0x00194ace-0x00194f4e)SimdFloatSqrt            0      0.00%     55.40% # Class of executed instruction being monitored (Count)
system.cpu.exec_context.thread_0.statExecutedInstTypeMonitor::(02:0x00194ace-0x00194f4e)SimdReduceAdd            0      0.00%     55.40% # Class of executed instruction being monitored (Count)
system.cpu.exec_context.thread_0.statExecutedInstTypeMonitor::(02:0x00194ace-0x00194f4e)SimdReduceAlu            0      0.00%     55.40% # Class of executed instruction being monitored (Count)
system.cpu.exec_context.thread_0.statExecutedInstTypeMonitor::(02:0x00194ace-0x00194f4e)SimdReduceCmp            0      0.00%     55.40% # Class of executed instruction being monitored (Count)
system.cpu.exec_context.thread_0.statExecutedInstTypeMonitor::(02:0x00194ace-0x00194f4e)SimdFloatReduceAdd            0      0.00%     55.40% # Class of executed instruction being monitored (Count)
system.cpu.exec_context.thread_0.statExecutedInstTypeMonitor::(02:0x00194ace-0x00194f4e)SimdFloatReduceCmp            0      0.00%     55.40% # Class of executed instruction being monitored (Count)
system.cpu.exec_context.thread_0.statExecutedInstTypeMonitor::(02:0x00194ace-0x00194f4e)SimdAes            0      0.00%     55.40% # Class of executed instruction being monitored (Count)
system.cpu.exec_context.thread_0.statExecutedInstTypeMonitor::(02:0x00194ace-0x00194f4e)SimdAesMix            0      0.00%     55.40% # Class of executed instruction being monitored (Count)
system.cpu.exec_context.thread_0.statExecutedInstTypeMonitor::(02:0x00194ace-0x00194f4e)SimdSha1Hash            0      0.00%     55.40% # Class of executed instruction being monitored (Count)
system.cpu.exec_context.thread_0.statExecutedInstTypeMonitor::(02:0x00194ace-0x00194f4e)SimdSha1Hash2            0      0.00%     55.40% # Class of executed instruction being monitored (Count)
system.cpu.exec_context.thread_0.statExecutedInstTypeMonitor::(02:0x00194ace-0x00194f4e)SimdSha256Hash            0      0.00%     55.40% # Class of executed instruction being monitored (Count)
system.cpu.exec_context.thread_0.statExecutedInstTypeMonitor::(02:0x00194ace-0x00194f4e)SimdSha256Hash2            0      0.00%     55.40% # Class of executed instruction being monitored (Count)
system.cpu.exec_context.thread_0.statExecutedInstTypeMonitor::(02:0x00194ace-0x00194f4e)SimdShaSigma2            0      0.00%     55.40% # Class of executed instruction being monitored (Count)
system.cpu.exec_context.thread_0.statExecutedInstTypeMonitor::(02:0x00194ace-0x00194f4e)SimdShaSigma3            0      0.00%     55.40% # Class of executed instruction being monitored (Count)
system.cpu.exec_context.thread_0.statExecutedInstTypeMonitor::(02:0x00194ace-0x00194f4e)SimdPredAlu            0      0.00%     55.40% # Class of executed instruction being monitored (Count)
system.cpu.exec_context.thread_0.statExecutedInstTypeMonitor::(02:0x00194ace-0x00194f4e)MemRead            0      0.00%     55.40% # Class of executed instruction being monitored (Count)
system.cpu.exec_context.thread_0.statExecutedInstTypeMonitor::(02:0x00194ace-0x00194f4e)MemWrite            0      0.00%     55.40% # Class of executed instruction being monitored (Count)
system.cpu.exec_context.thread_0.statExecutedInstTypeMonitor::(02:0x00194ace-0x00194f4e)FloatMemRead            0      0.00%     55.40% # Class of executed instruction being monitored (Count)
system.cpu.exec_context.thread_0.statExecutedInstTypeMonitor::(02:0x00194ace-0x00194f4e)FloatMemWrite            0      0.00%     55.40% # Class of executed instruction being monitored (Count)
system.cpu.exec_context.thread_0.statExecutedInstTypeMonitor::(02:0x00194ace-0x00194f4e)IprAccess            0      0.00%     55.40% # Class of executed instruction being monitored (Count)
system.cpu.exec_context.thread_0.statExecutedInstTypeMonitor::(02:0x00194ace-0x00194f4e)InstPrefetch            0      0.00%     55.40% # Class of executed instruction being monitored (Count)
system.cpu.exec_context.thread_0.statExecutedInstTypeMonitor::(02:0x00194ace-0x00194f4e)VectorIndexedMemLoad            0      0.00%     55.40% # Class of executed instruction being monitored (Count)
system.cpu.exec_context.thread_0.statExecutedInstTypeMonitor::(02:0x00194ace-0x00194f4e)VectorIndexedMemStore            0      0.00%     55.40% # Class of executed instruction being monitored (Count)
system.cpu.exec_context.thread_0.statExecutedInstTypeMonitor::(02:0x00194ace-0x00194f4e)VectorStridedMemLoad            0      0.00%     55.40% # Class of executed instruction being monitored (Count)
system.cpu.exec_context.thread_0.statExecutedInstTypeMonitor::(02:0x00194ace-0x00194f4e)VectorStridedMemStore            0      0.00%     55.40% # Class of executed instruction being monitored (Count)
system.cpu.exec_context.thread_0.statExecutedInstTypeMonitor::(02:0x00194ace-0x00194f4e)VectorUnitStrideMemLoad     21751620      9.93%     65.34% # Class of executed instruction being monitored (Count)
system.cpu.exec_context.thread_0.statExecutedInstTypeMonitor::(02:0x00194ace-0x00194f4e)VectorUnitStrideMemStore            0      0.00%     65.34% # Class of executed instruction being monitored (Count)
system.cpu.exec_context.thread_0.statExecutedInstTypeMonitor::(02:0x00194ace-0x00194f4e)VectorOPIVI            0      0.00%     65.34% # Class of executed instruction being monitored (Count)
system.cpu.exec_context.thread_0.statExecutedInstTypeMonitor::(02:0x00194ace-0x00194f4e)VectorOPIVISL       353016      0.16%     65.50% # Class of executed instruction being monitored (Count)
system.cpu.exec_context.thread_0.statExecutedInstTypeMonitor::(02:0x00194ace-0x00194f4e)VectorVdVs2Rs1            0      0.00%     65.50% # Class of executed instruction being monitored (Count)
system.cpu.exec_context.thread_0.statExecutedInstTypeMonitor::(02:0x00194ace-0x00194f4e)VectorVdVs2Rs1SL            0      0.00%     65.50% # Class of executed instruction being monitored (Count)
system.cpu.exec_context.thread_0.statExecutedInstTypeMonitor::(02:0x00194ace-0x00194f4e)VectorVdVs2Fs1            0      0.00%     65.50% # Class of executed instruction being monitored (Count)
[...]
system.mem_ctrls.dram.writeBursts                   0                       # Number of DRAM write bursts (Count)
system.mem_ctrls.dram.perBankRdBursts::0            0                       # Per bank write bursts (Count)
system.mem_ctrls.dram.perBankRdBursts::1            0                       # Per bank write bursts (Count)
system.mem_ctrls.dram.perBankRdBursts::2            0                       # Per bank write bursts (Count)
system.mem_ctrls.dram.perBankRdBursts::3            0                       # Per bank write bursts (Count)
system.mem_ctrls.dram.perBankRdBursts::4            0                       # Per bank write bursts (Count)
system.mem_ctrls.dram.perBankRdBursts::5            0                       # Per bank write bursts (Count)
system.mem_ctrls.dram.perBankRdBursts::6            0                       # Per bank write bursts (Count)
system.mem_ctrls.dram.perBankRdBursts::7            0                       # Per bank write bursts (Count)
system.mem_ctrls.dram.perBankRdBursts::8            0                       # Per bank write bursts (Count)
system.mem_ctrls.dram.perBankRdBursts::9            0                       # Per bank write bursts (Count)
system.mem_ctrls.dram.perBankRdBursts::10            0                       # Per bank write bursts (Count)
system.mem_ctrls.dram.perBankRdBursts::11            0                       # Per bank write bursts (Count)
system.mem_ctrls.dram.perBankRdBursts::12            0                       # Per bank write bursts (Count)
system.mem_ctrls.dram.perBankRdBursts::13            0                       # Per bank write bursts (Count)
system.mem_ctrls.dram.perBankRdBursts::14            0                       # Per bank write bursts (Count)
system.mem_ctrls.dram.perBankRdBursts::15            0                       # Per bank write bursts (Count)
system.mem_ctrls.dram.perBankWrBursts::0            0                       # Per bank write bursts (Count)
system.mem_ctrls.dram.perBankWrBursts::1            0                       # Per bank write bursts (Count)
system.mem_ctrls.dram.perBankWrBursts::2            0                       # Per bank write bursts (Count)
system.mem_ctrls.dram.perBankWrBursts::3            0                       # Per bank write bursts (Count)
system.mem_ctrls.dram.perBankWrBursts::4            0                       # Per bank write bursts (Count)
system.mem_ctrls.dram.perBankWrBursts::5            0                       # Per bank write bursts (Count)
system.mem_ctrls.dram.perBankWrBursts::6            0                       # Per bank write bursts (Count)
system.mem_ctrls.dram.perBankWrBursts::7            0                       # Per bank write bursts (Count)
system.mem_ctrls.dram.perBankWrBursts::8            0                       # Per bank write bursts (Count)
system.mem_ctrls.dram.perBankWrBursts::9            0                       # Per bank write bursts (Count)
system.mem_ctrls.dram.perBankWrBursts::10            0                       # Per bank write bursts (Count)
system.mem_ctrls.dram.perBankWrBursts::11            0                       # Per bank write bursts (Count)
system.mem_ctrls.dram.perBankWrBursts::12            0                       # Per bank write bursts (Count)
system.mem_ctrls.dram.perBankWrBursts::13            0                       # Per bank write bursts (Count)
system.mem_ctrls.dram.perBankWrBursts::14            0                       # Per bank write bursts (Count)
system.mem_ctrls.dram.perBankWrBursts::15            0                       # Per bank write bursts (Count)
system.mem_ctrls.dram.totQLat                       0                       # Total ticks spent queuing (Tick)
system.mem_ctrls.dram.totBusLat                     0                       # Total ticks spent in databus transfers (Tick)
system.mem_ctrls.dram.totMemAccLat                  0                       # Total ticks spent from burst creation until serviced by the DRAM (Tick)
system.mem_ctrls.dram.avgQLat                     nan                       # Average queueing delay per DRAM burst ((Tick/Count))
system.mem_ctrls.dram.avgBusLat                   nan                       # Average bus latency per DRAM burst ((Tick/Count))
system.mem_ctrls.dram.avgMemAccLat                nan                       # Average memory access latency per DRAM burst ((Tick/Count))
system.mem_ctrls.dram.readRowHits                   0                       # Number of row buffer hits during reads (Count)
system.mem_ctrls.dram.writeRowHits                  0                       # Number of row buffer hits during writes (Count)
system.mem_ctrls.dram.readRowHitRate              nan                       # Row buffer hit rate for reads (Ratio)
system.mem_ctrls.dram.writeRowHitRate             nan                       # Row buffer hit rate for writes (Ratio)
system.mem_ctrls.dram.bytesRead                     0                       # Total bytes read (Byte)
system.mem_ctrls.dram.bytesWritten                  0                       # Total bytes written (Byte)
system.mem_ctrls.dram.avgRdBW                       0                       # Average DRAM read bandwidth in MiBytes/s ((Byte/Second))
system.mem_ctrls.dram.avgWrBW                       0                       # Average DRAM write bandwidth in MiBytes/s ((Byte/Second))
system.mem_ctrls.dram.peakBW                 12800.00                       # Theoretical peak bandwidth in MiByte/s ((Byte/Second))
system.mem_ctrls.dram.busUtil                    0.00                       # Data bus utilization in percentage (Ratio)
system.mem_ctrls.dram.busUtilRead                0.00                       # Data bus utilization in percentage for reads (Ratio)
system.mem_ctrls.dram.busUtilWrite               0.00                       # Data bus utilization in percentage for writes (Ratio)
system.mem_ctrls.dram.pageHitRate                 nan                       # Row buffer hit rate, read and write combined (Ratio)
system.mem_ctrls.dram.power_state.pwrStateResidencyTicks::UNDEFINED   1742084197                       # Cumulative time (in ticks) in various power states (Tick)
system.mem_ctrls.dram.rank0.actEnergy               0                       # Energy for activate commands per rank (pJ) (Joule)
system.mem_ctrls.dram.rank0.preEnergy               0                       # Energy for precharge commands per rank (pJ) (Joule)
system.mem_ctrls.dram.rank0.readEnergy              0                       # Energy for read commands per rank (pJ) (Joule)
system.mem_ctrls.dram.rank0.writeEnergy             0                       # Energy for write commands per rank (pJ) (Joule)
system.mem_ctrls.dram.rank0.refreshEnergy            0                       # Energy for refresh commands per rank (pJ) (Joule)
system.mem_ctrls.dram.rank0.actBackEnergy            0                       # Energy for active background per rank (pJ) (Joule)
system.mem_ctrls.dram.rank0.preBackEnergy 668960331648                       # Energy for precharge background per rank (pJ) (Joule)
system.mem_ctrls.dram.rank0.actPowerDownEnergy            0                       # Energy for active power-down per rank (pJ) (Joule)
system.mem_ctrls.dram.rank0.prePowerDownEnergy            0                       # Energy for precharge power-down per rank (pJ) (Joule)
system.mem_ctrls.dram.rank0.selfRefreshEnergy            0                       # Energy for self refresh per rank (pJ) (Joule)
system.mem_ctrls.dram.rank0.totalEnergy  668960331648                       # Total energy per rank (pJ) (Joule)
system.mem_ctrls.dram.rank0.averagePower          384                       # Core power per rank (mW) (Watt)
system.mem_ctrls.dram.rank0.totalIdleTime            0                       # Total Idle time Per DRAM Rank (Tick)
system.mem_ctrls.dram.rank0.pwrStateTime::IDLE   1742084197                       # Time in different power states (Tick)
system.mem_ctrls.dram.rank0.pwrStateTime::REF            0                       # Time in different power states (Tick)
system.mem_ctrls.dram.rank0.pwrStateTime::SREF            0                       # Time in different power states (Tick)
system.mem_ctrls.dram.rank0.pwrStateTime::PRE_PDN            0                       # Time in different power states (Tick)
system.mem_ctrls.dram.rank0.pwrStateTime::ACT            0                       # Time in different power states (Tick)
system.mem_ctrls.dram.rank0.pwrStateTime::ACT_PDN            0                       # Time in different power states (Tick)
system.mem_ctrls.dram.rank1.actEnergy               0                       # Energy for activate commands per rank (pJ) (Joule)
system.mem_ctrls.dram.rank1.preEnergy               0                       # Energy for precharge commands per rank (pJ) (Joule)
system.mem_ctrls.dram.rank1.readEnergy              0                       # Energy for read commands per rank (pJ) (Joule)
system.mem_ctrls.dram.rank1.writeEnergy             0                       # Energy for write commands per rank (pJ) (Joule)
system.mem_ctrls.dram.rank1.refreshEnergy            0                       # Energy for refresh commands per rank (pJ) (Joule)
system.mem_ctrls.dram.rank1.actBackEnergy            0                       # Energy for active background per rank (pJ) (Joule)
system.mem_ctrls.dram.rank1.preBackEnergy 668960331648                       # Energy for precharge background per rank (pJ) (Joule)
system.mem_ctrls.dram.rank1.actPowerDownEnergy            0                       # Energy for active power-down per rank (pJ) (Joule)
system.mem_ctrls.dram.rank1.prePowerDownEnergy            0                       # Energy for precharge power-down per rank (pJ) (Joule)
system.mem_ctrls.dram.rank1.selfRefreshEnergy            0                       # Energy for self refresh per rank (pJ) (Joule)
system.mem_ctrls.dram.rank1.totalEnergy  668960331648                       # Total energy per rank (pJ) (Joule)
system.mem_ctrls.dram.rank1.averagePower          384                       # Core power per rank (mW) (Watt)
system.mem_ctrls.dram.rank1.totalIdleTime            0                       # Total Idle time Per DRAM Rank (Tick)
system.mem_ctrls.dram.rank1.pwrStateTime::IDLE   1742084197                       # Time in different power states (Tick)
system.mem_ctrls.dram.rank1.pwrStateTime::REF            0                       # Time in different power states (Tick)
system.mem_ctrls.dram.rank1.pwrStateTime::SREF            0                       # Time in different power states (Tick)
system.mem_ctrls.dram.rank1.pwrStateTime::PRE_PDN            0                       # Time in different power states (Tick)
system.mem_ctrls.dram.rank1.pwrStateTime::ACT            0                       # Time in different power states (Tick)
system.mem_ctrls.dram.rank1.pwrStateTime::ACT_PDN            0                       # Time in different power states (Tick)
system.mem_ctrls.power_state.pwrStateResidencyTicks::UNDEFINED   1742084197                       # Cumulative time (in ticks) in various power states (Tick)
system.membus.transDist::ReadResp             1227045                       # Transaction distribution (Count)
system.membus.transDist::WritebackDirty       1264106                       # Transaction distribution (Count)
system.membus.transDist::CleanEvict           1201758                       # Transaction distribution (Count)
system.membus.transDist::ReadExReq            1255852                       # Transaction distribution (Count)
system.membus.transDist::ReadExResp           1255852                       # Transaction distribution (Count)
system.membus.transDist::ReadSharedReq        1227045                       # Transaction distribution (Count)
system.membus.pktCount_system.l2.mem_side_port::system.mem_ctrls.port      7431658                       # Packet count per connected requestor and responder (Count)
system.membus.pktCount::total                 7431658                       # Packet count per connected requestor and responder (Count)
system.membus.pktSize_system.l2.mem_side_port::system.mem_ctrls.port    239808192                       # Cumulative packet size per connected requestor and responder (Byte)
system.membus.pktSize::total                239808192                       # Cumulative packet size per connected requestor and responder (Byte)
system.membus.snoops                                0                       # Total snoops (Count)
system.membus.snoopTraffic                          0                       # Total snoop traffic (Byte)
system.membus.snoopFanout::samples            2482897                       # Request fanout histogram (Count)
system.membus.snoopFanout::mean                     0                       # Request fanout histogram (Count)
system.membus.snoopFanout::stdev                    0                       # Request fanout histogram (Count)
system.membus.snoopFanout::underflows               0      0.00%      0.00% # Request fanout histogram (Count)
system.membus.snoopFanout::0                  2482897    100.00%    100.00% # Request fanout histogram (Count)
system.membus.snoopFanout::1                        0      0.00%    100.00% # Request fanout histogram (Count)
system.membus.snoopFanout::overflows                0      0.00%    100.00% # Request fanout histogram (Count)
system.membus.snoopFanout::min_value                0                       # Request fanout histogram (Count)
system.membus.snoopFanout::max_value                0                       # Request fanout histogram (Count)
system.membus.snoopFanout::total              2482897                       # Request fanout histogram (Count)
system.membus.power_state.pwrStateResidencyTicks::UNDEFINED   1742084197                       # Cumulative time (in ticks) in various power states (Tick)
system.membus.snoop_filter.totRequests        4948761                       # Total number of requests made to the snoop filter. (Count)
system.membus.snoop_filter.hitSingleRequests      2465864                       # Number of requests hitting in the snoop filter with a single holder of the requested data. (Count)
system.membus.snoop_filter.hitMultiRequests            0                       # Number of requests hitting in the snoop filter with multiple (>1) holders of the requested data. (Count)
system.membus.snoop_filter.totSnoops                0                       # Total number of snoops made to the snoop filter. (Count)
system.membus.snoop_filter.hitSingleSnoops            0                       # Number of snoops hitting in the snoop filter with a single holder of the requested data. (Count)
system.membus.snoop_filter.hitMultiSnoops            0                       # Number of snoops hitting in the snoop filter with multiple (>1) holders of the requested data. (Count)
system.tol2bus.transDist::ReadResp            6355174                       # Transaction distribution (Count)
system.tol2bus.transDist::WritebackDirty      1924611                       # Transaction distribution (Count)
system.tol2bus.transDist::WritebackClean         4641                       # Transaction distribution (Count)
system.tol2bus.transDist::CleanEvict          5864885                       # Transaction distribution (Count)
system.tol2bus.transDist::ReadExReq           1441011                       # Transaction distribution (Count)
system.tol2bus.transDist::ReadExResp          1441011                       # Transaction distribution (Count)
system.tol2bus.transDist::ReadCleanReq           5665                       # Transaction distribution (Count)
system.tol2bus.transDist::ReadSharedReq       6349509                       # Transaction distribution (Count)
system.tol2bus.pktCount_system.cpu.icache.mem_side_port::system.l2.cpu_side_port        15971                       # Packet count per connected requestor and responder (Count)
system.tol2bus.pktCount_system.cpu.dcache.mem_side_port::system.l2.cpu_side_port     23370536                       # Packet count per connected requestor and responder (Count)
system.tol2bus.pktCount::total               23386507                       # Packet count per connected requestor and responder (Count)
system.tol2bus.pktSize_system.cpu.icache.mem_side_port::system.l2.cpu_side_port       659584                       # Cumulative packet size per connected requestor and responder (Byte)
system.tol2bus.pktSize_system.cpu.dcache.mem_side_port::system.l2.cpu_side_port    621768384                       # Cumulative packet size per connected requestor and responder (Byte)
system.tol2bus.pktSize::total               622427968                       # Cumulative packet size per connected requestor and responder (Byte)
system.tol2bus.snoops                         2470203                       # Total snoops (Count)
system.tol2bus.snoopTraffic                  80902784                       # Total snoop traffic (Byte)
system.tol2bus.snoopFanout::samples          10266388                       # Request fanout histogram (Count)
system.tol2bus.snoopFanout::mean             0.000741                       # Request fanout histogram (Count)
system.tol2bus.snoopFanout::stdev            0.027214                       # Request fanout histogram (Count)
system.tol2bus.snoopFanout::underflows              0      0.00%      0.00% # Request fanout histogram (Count)
system.tol2bus.snoopFanout::0                10258779     99.93%     99.93% # Request fanout histogram (Count)
system.tol2bus.snoopFanout::1                    7609      0.07%    100.00% # Request fanout histogram (Count)
system.tol2bus.snoopFanout::2                       0      0.00%    100.00% # Request fanout histogram (Count)
system.tol2bus.snoopFanout::3                       0      0.00%    100.00% # Request fanout histogram (Count)
system.tol2bus.snoopFanout::4                       0      0.00%    100.00% # Request fanout histogram (Count)
system.tol2bus.snoopFanout::overflows               0      0.00%    100.00% # Request fanout histogram (Count)
system.tol2bus.snoopFanout::min_value               0                       # Request fanout histogram (Count)
system.tol2bus.snoopFanout::max_value               1                       # Request fanout histogram (Count)
system.tol2bus.snoopFanout::total            10266388                       # Request fanout histogram (Count)
system.tol2bus.power_state.pwrStateResidencyTicks::UNDEFINED   1742084197                       # Cumulative time (in ticks) in various power states (Tick)
system.tol2bus.snoop_filter.totRequests      15590322                       # Total number of requests made to the snoop filter. (Count)
system.tol2bus.snoop_filter.hitSingleRequests      7794137                       # Number of requests hitting in the snoop filter with a single holder of the requested data. (Count)
system.tol2bus.snoop_filter.hitMultiRequests            0                       # Number of requests hitting in the snoop filter with multiple (>1) holders of the requested data. (Count)
system.tol2bus.snoop_filter.totSnoops            7609                       # Total number of snoops made to the snoop filter. (Count)
system.tol2bus.snoop_filter.hitSingleSnoops         7609                       # Number of snoops hitting in the snoop filter with a single holder of the requested data. (Count)
system.tol2bus.snoop_filter.hitMultiSnoops            0                       # Number of snoops hitting in the snoop filter with multiple (>1) holders of the requested data. (Count)
system.voltage_domain.voltage                       1                       # Voltage in Volts (Volt)
system.workload.inst.arm                            0                       # number of arm instructions executed (Count)
system.workload.inst.quiesce                        0                       # number of quiesce instructions executed (Count)

---------- End Simulation Statistics   ----------
