
---------- Begin Simulation Statistics ----------
simSeconds                                   2.240794                       # Number of seconds simulated (Second)
simTicks                                   2240793577                       # Number of ticks simulated (Tick)
finalTick                                  2240793577                       # Number of ticks from beginning of simulation (restored from checkpoints and never reset) (Tick)
simFreq                                    1000000000                       # The number of ticks per simulated second ((Tick/Second))
hostSeconds                                    376.06                       # Real time elapsed on the host (Second)
hostTickRate                                  5958581                       # The number of ticks simulated per host second (ticks/s) ((Tick/Second))
hostMemory                                     817332                       # Number of bytes of host memory used (Byte)
simInsts                                    611372131                       # Number of instructions simulated (Count)
simVecInsts                                 127963964                       # Number of vector instructions simulated (Count)
simOps                                      614036728                       # Number of ops (including micro ops) simulated (Count)
hostInstRate                                  1625723                       # Simulator instruction rate (inst/s) ((Count/Second))
hostOpRate                                    1632808                       # Simulator op (including micro ops) rate (op/s) ((Count/Second))
system.clk_domain.clock                             1                       # Clock period in ticks (Tick)
system.cpu.numCycles                        743768726                       # Number of cpu cycles simulated (Cycle)
system.cpu.numWorkItemsStarted                      0                       # Number of work items this cpu started (Count)
system.cpu.numWorkItemsCompleted                    0                       # Number of work items this cpu completed (Count)
system.cpu.dcache.demandHits::cpu.data      217458078                       # number of demand (read+write) hits (Count)
system.cpu.dcache.demandHits::total         217458078                       # number of demand (read+write) hits (Count)
system.cpu.dcache.overallHits::cpu.data     217458078                       # number of overall hits (Count)
system.cpu.dcache.overallHits::total        217458078                       # number of overall hits (Count)
system.cpu.dcache.demandMisses::cpu.data     14118034                       # number of demand (read+write) misses (Count)
system.cpu.dcache.demandMisses::total        14118034                       # number of demand (read+write) misses (Count)
system.cpu.dcache.overallMisses::cpu.data     14118034                       # number of overall misses (Count)
system.cpu.dcache.overallMisses::total       14118034                       # number of overall misses (Count)
system.cpu.dcache.demandAccesses::cpu.data    231576112                       # number of demand (read+write) accesses (Count)
system.cpu.dcache.demandAccesses::total     231576112                       # number of demand (read+write) accesses (Count)
system.cpu.dcache.overallAccesses::cpu.data    231576112                       # number of overall (read+write) accesses (Count)
system.cpu.dcache.overallAccesses::total    231576112                       # number of overall (read+write) accesses (Count)
system.cpu.dcache.demandMissRate::cpu.data     0.060965                       # miss rate for demand accesses (Ratio)
system.cpu.dcache.demandMissRate::total      0.060965                       # miss rate for demand accesses (Ratio)
system.cpu.dcache.overallMissRate::cpu.data     0.060965                       # miss rate for overall accesses (Ratio)
system.cpu.dcache.overallMissRate::total     0.060965                       # miss rate for overall accesses (Ratio)
system.cpu.dcache.blockedCycles::no_mshrs            0                       # number of cycles access was blocked (Cycle)
system.cpu.dcache.blockedCycles::no_targets            0                       # number of cycles access was blocked (Cycle)
system.cpu.dcache.blockedCauses::no_mshrs            0                       # number of times access was blocked (Count)
system.cpu.dcache.blockedCauses::no_targets            0                       # number of times access was blocked (Count)
system.cpu.dcache.avgBlocked::no_mshrs            nan                       # average number of cycles each access was blocked ((Cycle/Count))
system.cpu.dcache.avgBlocked::no_targets          nan                       # average number of cycles each access was blocked ((Cycle/Count))
system.cpu.dcache.writebacks::writebacks      2838891                       # number of writebacks (Count)
system.cpu.dcache.writebacks::total           2838891                       # number of writebacks (Count)
system.cpu.dcache.replacements               14117019                       # number of replacements (Count)
system.cpu.dcache.LoadLockedReq.hits::cpu.data          671                       # number of LoadLockedReq hits (Count)
system.cpu.dcache.LoadLockedReq.hits::total          671                       # number of LoadLockedReq hits (Count)
system.cpu.dcache.LoadLockedReq.misses::cpu.data            4                       # number of LoadLockedReq misses (Count)
system.cpu.dcache.LoadLockedReq.misses::total            4                       # number of LoadLockedReq misses (Count)
system.cpu.dcache.LoadLockedReq.accesses::cpu.data          675                       # number of LoadLockedReq accesses(hits+misses) (Count)
system.cpu.dcache.LoadLockedReq.accesses::total          675                       # number of LoadLockedReq accesses(hits+misses) (Count)
system.cpu.dcache.LoadLockedReq.missRate::cpu.data     0.005926                       # miss rate for LoadLockedReq accesses (Ratio)
system.cpu.dcache.LoadLockedReq.missRate::total     0.005926                       # miss rate for LoadLockedReq accesses (Ratio)
system.cpu.dcache.ReadReq.hits::cpu.data    114202751                       # number of ReadReq hits (Count)
system.cpu.dcache.ReadReq.hits::total       114202751                       # number of ReadReq hits (Count)
system.cpu.dcache.ReadReq.misses::cpu.data     12211242                       # number of ReadReq misses (Count)
system.cpu.dcache.ReadReq.misses::total      12211242                       # number of ReadReq misses (Count)
system.cpu.dcache.ReadReq.accesses::cpu.data    126413993                       # number of ReadReq accesses(hits+misses) (Count)
system.cpu.dcache.ReadReq.accesses::total    126413993                       # number of ReadReq accesses(hits+misses) (Count)
system.cpu.dcache.ReadReq.missRate::cpu.data     0.096597                       # miss rate for ReadReq accesses (Ratio)
system.cpu.dcache.ReadReq.missRate::total     0.096597                       # miss rate for ReadReq accesses (Ratio)
system.cpu.dcache.StoreCondReq.hits::cpu.data          675                       # number of StoreCondReq hits (Count)
system.cpu.dcache.StoreCondReq.hits::total          675                       # number of StoreCondReq hits (Count)
system.cpu.dcache.StoreCondReq.accesses::cpu.data          675                       # number of StoreCondReq accesses(hits+misses) (Count)
system.cpu.dcache.StoreCondReq.accesses::total          675                       # number of StoreCondReq accesses(hits+misses) (Count)
system.cpu.dcache.SwapReq.hits::cpu.data         3337                       # number of SwapReq hits (Count)
system.cpu.dcache.SwapReq.hits::total            3337                       # number of SwapReq hits (Count)
system.cpu.dcache.SwapReq.misses::cpu.data            5                       # number of SwapReq misses (Count)
system.cpu.dcache.SwapReq.misses::total             5                       # number of SwapReq misses (Count)
system.cpu.dcache.SwapReq.accesses::cpu.data         3342                       # number of SwapReq accesses(hits+misses) (Count)
system.cpu.dcache.SwapReq.accesses::total         3342                       # number of SwapReq accesses(hits+misses) (Count)
system.cpu.dcache.SwapReq.missRate::cpu.data     0.001496                       # miss rate for SwapReq accesses (Ratio)
system.cpu.dcache.SwapReq.missRate::total     0.001496                       # miss rate for SwapReq accesses (Ratio)
system.cpu.dcache.WriteReq.hits::cpu.data    103255327                       # number of WriteReq hits (Count)
system.cpu.dcache.WriteReq.hits::total      103255327                       # number of WriteReq hits (Count)
system.cpu.dcache.WriteReq.misses::cpu.data      1906792                       # number of WriteReq misses (Count)
system.cpu.dcache.WriteReq.misses::total      1906792                       # number of WriteReq misses (Count)
system.cpu.dcache.WriteReq.accesses::cpu.data    105162119                       # number of WriteReq accesses(hits+misses) (Count)
system.cpu.dcache.WriteReq.accesses::total    105162119                       # number of WriteReq accesses(hits+misses) (Count)
system.cpu.dcache.WriteReq.missRate::cpu.data     0.018132                       # miss rate for WriteReq accesses (Ratio)
system.cpu.dcache.WriteReq.missRate::total     0.018132                       # miss rate for WriteReq accesses (Ratio)
system.cpu.dcache.power_state.pwrStateResidencyTicks::UNDEFINED   2240793577                       # Cumulative time (in ticks) in various power states (Tick)
system.cpu.dcache.tags.tagsInUse          1023.852405                       # Average ticks per tags in use ((Tick/Count))
system.cpu.dcache.tags.totalRefs            231580804                       # Total number of references to valid blocks. (Count)
system.cpu.dcache.tags.sampledRefs           14118043                       # Sample count of references to valid blocks. (Count)
system.cpu.dcache.tags.avgRefs              16.403180                       # Average number of references to valid blocks. ((Count/Count))
system.cpu.dcache.tags.warmupTick                 146                       # The tick when the warmup percentage was hit. (Tick)
system.cpu.dcache.tags.occupancies::cpu.data  1023.852405                       # Average occupied blocks per tick, per requestor ((Count/Tick))
system.cpu.dcache.tags.avgOccs::cpu.data     0.999856                       # Average percentage of cache occupancy ((Ratio/Tick))
system.cpu.dcache.tags.avgOccs::total        0.999856                       # Average percentage of cache occupancy ((Ratio/Tick))
system.cpu.dcache.tags.occupanciesTaskId::1024         1024                       # Occupied blocks per task id (Count)
system.cpu.dcache.tags.ageTaskId_1024::0           48                       # Occupied blocks per task id, per block age (Count)
system.cpu.dcache.tags.ageTaskId_1024::1          254                       # Occupied blocks per task id, per block age (Count)
system.cpu.dcache.tags.ageTaskId_1024::2          712                       # Occupied blocks per task id, per block age (Count)
system.cpu.dcache.tags.ageTaskId_1024::3           10                       # Occupied blocks per task id, per block age (Count)
system.cpu.dcache.tags.ratioOccsTaskId::1024            1                       # Ratio of occupied blocks and all blocks, per task id (Ratio)
system.cpu.dcache.tags.tagAccesses          940441259                       # Number of tag accesses (Count)
system.cpu.dcache.tags.dataAccesses         940441259                       # Number of data accesses (Count)
system.cpu.dcache.tags.power_state.pwrStateResidencyTicks::UNDEFINED   2240793577                       # Cumulative time (in ticks) in various power states (Tick)
system.cpu.dtb_walker_cache.blockedCycles::no_mshrs            0                       # number of cycles access was blocked (Cycle)
system.cpu.dtb_walker_cache.blockedCycles::no_targets            0                       # number of cycles access was blocked (Cycle)
system.cpu.dtb_walker_cache.blockedCauses::no_mshrs            0                       # number of times access was blocked (Count)
system.cpu.dtb_walker_cache.blockedCauses::no_targets            0                       # number of times access was blocked (Count)
system.cpu.dtb_walker_cache.avgBlocked::no_mshrs          nan                       # average number of cycles each access was blocked ((Cycle/Count))
system.cpu.dtb_walker_cache.avgBlocked::no_targets          nan                       # average number of cycles each access was blocked ((Cycle/Count))
system.cpu.dtb_walker_cache.replacements            0                       # number of replacements (Count)
system.cpu.dtb_walker_cache.power_state.pwrStateResidencyTicks::UNDEFINED   2240793577                       # Cumulative time (in ticks) in various power states (Tick)
system.cpu.dtb_walker_cache.tags.tagsInUse            0                       # Average ticks per tags in use ((Tick/Count))
system.cpu.dtb_walker_cache.tags.totalRefs            0                       # Total number of references to valid blocks. (Count)
system.cpu.dtb_walker_cache.tags.sampledRefs            0                       # Sample count of references to valid blocks. (Count)
system.cpu.dtb_walker_cache.tags.avgRefs          nan                       # Average number of references to valid blocks. ((Count/Count))
system.cpu.dtb_walker_cache.tags.warmupTick            0                       # The tick when the warmup percentage was hit. (Tick)
system.cpu.dtb_walker_cache.tags.tagAccesses            0                       # Number of tag accesses (Count)
system.cpu.dtb_walker_cache.tags.dataAccesses            0                       # Number of data accesses (Count)
system.cpu.dtb_walker_cache.tags.power_state.pwrStateResidencyTicks::UNDEFINED   2240793577                       # Cumulative time (in ticks) in various power states (Tick)
system.cpu.exec_context.thread_0.numInsts    611372131                       # Number of instructions committed (Count)
system.cpu.exec_context.thread_0.numOps     614036728                       # Number of ops (including micro ops) committed (Count)
system.cpu.exec_context.thread_0.numIntAluAccesses    493985074                       # Number of integer alu accesses (Count)
system.cpu.exec_context.thread_0.numFpAluAccesses      1852608                       # Number of float alu accesses (Count)
system.cpu.exec_context.thread_0.numVecAluAccesses    127969609                       # Number of vector alu accesses (Count)
system.cpu.exec_context.thread_0.numCallsReturns       865604                       # Number of times a function call or return occured (Count)
system.cpu.exec_context.thread_0.numCondCtrlInsts     74661003                       # Number of instructions that are conditional controls (Count)
system.cpu.exec_context.thread_0.numIntInsts    493985074                       # Number of integer instructions (Count)
system.cpu.exec_context.thread_0.numFpInsts      1852608                       # Number of float instructions (Count)
system.cpu.exec_context.thread_0.numVecInsts    205163033                       # Number of vector instructions (Count)
system.cpu.exec_context.thread_0.numInstsMonitor::(00:0x00014000-0x00014006)    146966245    100.00%    100.00% # Number of instructions being monitored (Count)
system.cpu.exec_context.thread_0.numInstsMonitor::(01:0x00000000-0x00000000)            0      0.00%    100.00% # Number of instructions being monitored (Count)
system.cpu.exec_context.thread_0.numInstsMonitor::(02:0x00000000-0x00000000)            0      0.00%    100.00% # Number of instructions being monitored (Count)
system.cpu.exec_context.thread_0.numInstsMonitor::(03:0x00000000-0x00000000)            0      0.00%    100.00% # Number of instructions being monitored (Count)
system.cpu.exec_context.thread_0.numInstsMonitor::(04:0x00000000-0x00000000)            0      0.00%    100.00% # Number of instructions being monitored (Count)
system.cpu.exec_context.thread_0.numInstsMonitor::(05:0x00000000-0x00000000)            0      0.00%    100.00% # Number of instructions being monitored (Count)
system.cpu.exec_context.thread_0.numInstsMonitor::(06:0x00000000-0x00000000)            0      0.00%    100.00% # Number of instructions being monitored (Count)
system.cpu.exec_context.thread_0.numInstsMonitor::(07:0x00000000-0x00000000)            0      0.00%    100.00% # Number of instructions being monitored (Count)
system.cpu.exec_context.thread_0.numInstsMonitor::(08:0x00000000-0x00000000)            0      0.00%    100.00% # Number of instructions being monitored (Count)
system.cpu.exec_context.thread_0.numInstsMonitor::(09:0x00000000-0x00000000)            0      0.00%    100.00% # Number of instructions being monitored (Count)
system.cpu.exec_context.thread_0.numInstsMonitor::total    146966245                       # Number of instructions being monitored (Count)
system.cpu.exec_context.thread_0.numVecInstsMonitor::(00:0x00014000-0x00014006)    101013901    100.00%    100.00% # Number of vector instructions being monitored (Count)
system.cpu.exec_context.thread_0.numVecInstsMonitor::(01:0x00000000-0x00000000)            0      0.00%    100.00% # Number of vector instructions being monitored (Count)
system.cpu.exec_context.thread_0.numVecInstsMonitor::(02:0x00000000-0x00000000)            0      0.00%    100.00% # Number of vector instructions being monitored (Count)
system.cpu.exec_context.thread_0.numVecInstsMonitor::(03:0x00000000-0x00000000)            0      0.00%    100.00% # Number of vector instructions being monitored (Count)
system.cpu.exec_context.thread_0.numVecInstsMonitor::(04:0x00000000-0x00000000)            0      0.00%    100.00% # Number of vector instructions being monitored (Count)
system.cpu.exec_context.thread_0.numVecInstsMonitor::(05:0x00000000-0x00000000)            0      0.00%    100.00% # Number of vector instructions being monitored (Count)
system.cpu.exec_context.thread_0.numVecInstsMonitor::(06:0x00000000-0x00000000)            0      0.00%    100.00% # Number of vector instructions being monitored (Count)
system.cpu.exec_context.thread_0.numVecInstsMonitor::(07:0x00000000-0x00000000)            0      0.00%    100.00% # Number of vector instructions being monitored (Count)
system.cpu.exec_context.thread_0.numVecInstsMonitor::(08:0x00000000-0x00000000)            0      0.00%    100.00% # Number of vector instructions being monitored (Count)
system.cpu.exec_context.thread_0.numVecInstsMonitor::(09:0x00000000-0x00000000)            0      0.00%    100.00% # Number of vector instructions being monitored (Count)
system.cpu.exec_context.thread_0.numVecInstsMonitor::total    101013901                       # Number of vector instructions being monitored (Count)
system.cpu.exec_context.thread_0.numIntRegReads    806728247                       # Number of times the integer registers were read (Count)
system.cpu.exec_context.thread_0.numIntRegWrites    355221239                       # Number of times the integer registers were written (Count)
system.cpu.exec_context.thread_0.numFpRegReads      2305947                       # Number of times the floating registers were read (Count)
system.cpu.exec_context.thread_0.numFpRegWrites      1130444                       # Number of times the floating registers were written (Count)
system.cpu.exec_context.thread_0.numVecRegReads    183968929                       # Number of times the vector registers were read (Count)
system.cpu.exec_context.thread_0.numVecRegWrites    172881248                       # Number of times the vector registers were written (Count)
system.cpu.exec_context.thread_0.numVecPredRegReads            0                       # Number of times the predicate registers were read (Count)
system.cpu.exec_context.thread_0.numVecPredRegWrites            0                       # Number of times the predicate registers were written (Count)
system.cpu.exec_context.thread_0.numMiscRegReads    321953665                       # Number of times the Misc registers were read (Count)
system.cpu.exec_context.thread_0.numMiscRegWrites     57946859                       # Number of times the Misc registers were written (Count)
system.cpu.exec_context.thread_0.numMemRefs    169941861                       # Number of memory refs (Count)
system.cpu.exec_context.thread_0.numLoadInsts    110455557                       # Number of load instructions (Count)
system.cpu.exec_context.thread_0.numStoreInsts     59486304                       # Number of store instructions (Count)
system.cpu.exec_context.thread_0.numIdleCycles     0.331922                       # Number of idle cycles (Cycle)
system.cpu.exec_context.thread_0.numBusyCycles 743768725.668078                       # Number of busy cycles (Cycle)
system.cpu.exec_context.thread_0.notIdleFraction     1.000000                       # Percentage of non-idle cycles (Ratio)
system.cpu.exec_context.thread_0.idleFraction     0.000000                       # Percentage of idle cycles (Ratio)
system.cpu.exec_context.thread_0.numBranches     78335694                       # Number of branches fetched (Count)
system.cpu.exec_context.thread_0.statExecutedInstType::No_OpClass       391079      0.06%      0.06% # Class of executed instruction. (Count)
system.cpu.exec_context.thread_0.statExecutedInstType::IntAlu    352576439     51.01%     51.06% # Class of executed instruction. (Count)
system.cpu.exec_context.thread_0.statExecutedInstType::IntMult      7867746      1.14%     52.20% # Class of executed instruction. (Count)
system.cpu.exec_context.thread_0.statExecutedInstType::IntDiv        12193      0.00%     52.20% # Class of executed instruction. (Count)
system.cpu.exec_context.thread_0.statExecutedInstType::FloatAdd       152043      0.02%     52.22% # Class of executed instruction. (Count)
system.cpu.exec_context.thread_0.statExecutedInstType::FloatCmp       389685      0.06%     52.28% # Class of executed instruction. (Count)
system.cpu.exec_context.thread_0.statExecutedInstType::FloatCvt       376650      0.05%     52.33% # Class of executed instruction. (Count)
system.cpu.exec_context.thread_0.statExecutedInstType::FloatMult        83656      0.01%     52.35% # Class of executed instruction. (Count)
system.cpu.exec_context.thread_0.statExecutedInstType::FloatMultAcc          448      0.00%     52.35% # Class of executed instruction. (Count)
system.cpu.exec_context.thread_0.statExecutedInstType::FloatDiv       205947      0.03%     52.38% # Class of executed instruction. (Count)
system.cpu.exec_context.thread_0.statExecutedInstType::FloatMisc       141097      0.02%     52.40% # Class of executed instruction. (Count)
system.cpu.exec_context.thread_0.statExecutedInstType::FloatSqrt            0      0.00%     52.40% # Class of executed instruction. (Count)
system.cpu.exec_context.thread_0.statExecutedInstType::SimdAdd            0      0.00%     52.40% # Class of executed instruction. (Count)
system.cpu.exec_context.thread_0.statExecutedInstType::SimdAddAcc            0      0.00%     52.40% # Class of executed instruction. (Count)
system.cpu.exec_context.thread_0.statExecutedInstType::SimdAlu            0      0.00%     52.40% # Class of executed instruction. (Count)
system.cpu.exec_context.thread_0.statExecutedInstType::SimdCmp            0      0.00%     52.40% # Class of executed instruction. (Count)
system.cpu.exec_context.thread_0.statExecutedInstType::SimdCvt            0      0.00%     52.40% # Class of executed instruction. (Count)
system.cpu.exec_context.thread_0.statExecutedInstType::SimdMisc            0      0.00%     52.40% # Class of executed instruction. (Count)
system.cpu.exec_context.thread_0.statExecutedInstType::SimdMult            0      0.00%     52.40% # Class of executed instruction. (Count)
system.cpu.exec_context.thread_0.statExecutedInstType::SimdMultAcc            0      0.00%     52.40% # Class of executed instruction. (Count)
system.cpu.exec_context.thread_0.statExecutedInstType::SimdShift            0      0.00%     52.40% # Class of executed instruction. (Count)
system.cpu.exec_context.thread_0.statExecutedInstType::SimdShiftAcc            0      0.00%     52.40% # Class of executed instruction. (Count)
system.cpu.exec_context.thread_0.statExecutedInstType::SimdDiv            0      0.00%     52.40% # Class of executed instruction. (Count)
system.cpu.exec_context.thread_0.statExecutedInstType::SimdSqrt            0      0.00%     52.40% # Class of executed instruction. (Count)
system.cpu.exec_context.thread_0.statExecutedInstType::SimdFloatAdd            0      0.00%     52.40% # Class of executed instruction. (Count)
system.cpu.exec_context.thread_0.statExecutedInstType::SimdFloatAlu            0      0.00%     52.40% # Class of executed instruction. (Count)
system.cpu.exec_context.thread_0.statExecutedInstType::SimdFloatCmp            0      0.00%     52.40% # Class of executed instruction. (Count)
system.cpu.exec_context.thread_0.statExecutedInstType::SimdFloatCvt            0      0.00%     52.40% # Class of executed instruction. (Count)
system.cpu.exec_context.thread_0.statExecutedInstType::SimdFloatDiv            0      0.00%     52.40% # Class of executed instruction. (Count)
system.cpu.exec_context.thread_0.statExecutedInstType::SimdFloatMisc            0      0.00%     52.40% # Class of executed instruction. (Count)
system.cpu.exec_context.thread_0.statExecutedInstType::SimdFloatMult            0      0.00%     52.40% # Class of executed instruction. (Count)
system.cpu.exec_context.thread_0.statExecutedInstType::SimdFloatMultAcc            0      0.00%     52.40% # Class of executed instruction. (Count)
system.cpu.exec_context.thread_0.statExecutedInstType::SimdFloatSqrt            0      0.00%     52.40% # Class of executed instruction. (Count)
system.cpu.exec_context.thread_0.statExecutedInstType::SimdReduceAdd            0      0.00%     52.40% # Class of executed instruction. (Count)
system.cpu.exec_context.thread_0.statExecutedInstType::SimdReduceAlu            0      0.00%     52.40% # Class of executed instruction. (Count)
system.cpu.exec_context.thread_0.statExecutedInstType::SimdReduceCmp            0      0.00%     52.40% # Class of executed instruction. (Count)
system.cpu.exec_context.thread_0.statExecutedInstType::SimdFloatReduceAdd            0      0.00%     52.40% # Class of executed instruction. (Count)
system.cpu.exec_context.thread_0.statExecutedInstType::SimdFloatReduceCmp            0      0.00%     52.40% # Class of executed instruction. (Count)
system.cpu.exec_context.thread_0.statExecutedInstType::SimdAes            0      0.00%     52.40% # Class of executed instruction. (Count)
system.cpu.exec_context.thread_0.statExecutedInstType::SimdAesMix            0      0.00%     52.40% # Class of executed instruction. (Count)
system.cpu.exec_context.thread_0.statExecutedInstType::SimdSha1Hash            0      0.00%     52.40% # Class of executed instruction. (Count)
system.cpu.exec_context.thread_0.statExecutedInstType::SimdSha1Hash2            0      0.00%     52.40% # Class of executed instruction. (Count)
system.cpu.exec_context.thread_0.statExecutedInstType::SimdSha256Hash            0      0.00%     52.40% # Class of executed instruction. (Count)
system.cpu.exec_context.thread_0.statExecutedInstType::SimdSha256Hash2            0      0.00%     52.40% # Class of executed instruction. (Count)
system.cpu.exec_context.thread_0.statExecutedInstType::SimdShaSigma2            0      0.00%     52.40% # Class of executed instruction. (Count)
system.cpu.exec_context.thread_0.statExecutedInstType::SimdShaSigma3            0      0.00%     52.40% # Class of executed instruction. (Count)
system.cpu.exec_context.thread_0.statExecutedInstType::SimdPredAlu            0      0.00%     52.40% # Class of executed instruction. (Count)
system.cpu.exec_context.thread_0.statExecutedInstType::MemRead     66484181      9.62%     62.02% # Class of executed instruction. (Count)
system.cpu.exec_context.thread_0.statExecutedInstType::MemWrite     54250553      7.85%     69.86% # Class of executed instruction. (Count)
system.cpu.exec_context.thread_0.statExecutedInstType::FloatMemRead       256060      0.04%     69.90% # Class of executed instruction. (Count)
system.cpu.exec_context.thread_0.statExecutedInstType::FloatMemWrite       237422      0.03%     69.93% # Class of executed instruction. (Count)
system.cpu.exec_context.thread_0.statExecutedInstType::IprAccess            0      0.00%     69.93% # Class of executed instruction. (Count)
system.cpu.exec_context.thread_0.statExecutedInstType::InstPrefetch            0      0.00%     69.93% # Class of executed instruction. (Count)
system.cpu.exec_context.thread_0.statExecutedInstType::VectorIndexedMemLoad            0      0.00%     69.93% # Class of executed instruction. (Count)
system.cpu.exec_context.thread_0.statExecutedInstType::VectorIndexedMemStore            0      0.00%     69.93% # Class of executed instruction. (Count)
system.cpu.exec_context.thread_0.statExecutedInstType::VectorStridedMemLoad            0      0.00%     69.93% # Class of executed instruction. (Count)
system.cpu.exec_context.thread_0.statExecutedInstType::VectorStridedMemStore            0      0.00%     69.93% # Class of executed instruction. (Count)
system.cpu.exec_context.thread_0.statExecutedInstType::VectorUnitStrideMemLoad     86529088     12.52%     82.45% # Class of executed instruction. (Count)
system.cpu.exec_context.thread_0.statExecutedInstType::VectorUnitStrideMemStore      7674557      1.11%     83.56% # Class of executed instruction. (Count)
system.cpu.exec_context.thread_0.statExecutedInstType::VectorOPIVI            0      0.00%     83.56% # Class of executed instruction. (Count)
system.cpu.exec_context.thread_0.statExecutedInstType::VectorOPIVISL       845808      0.12%     83.69% # Class of executed instruction. (Count)
system.cpu.exec_context.thread_0.statExecutedInstType::VectorVdVs2Rs1     15273668      2.21%     85.89% # Class of executed instruction. (Count)
system.cpu.exec_context.thread_0.statExecutedInstType::VectorVdVs2Rs1SL            0      0.00%     85.89% # Class of executed instruction. (Count)
system.cpu.exec_context.thread_0.statExecutedInstType::VectorVdVs2Fs1        76800      0.01%     85.91% # Class of executed instruction. (Count)
system.cpu.exec_context.thread_0.statExecutedInstType::VectorWideningVdVs2            0      0.00%     85.91% # Class of executed instruction. (Count)
system.cpu.exec_context.thread_0.statExecutedInstType::VectorNarrowingVV            0      0.00%     85.91% # Class of executed instruction. (Count)
system.cpu.exec_context.thread_0.statExecutedInstType::VectorNarrowingVI            0      0.00%     85.91% # Class of executed instruction. (Count)
system.cpu.exec_context.thread_0.statExecutedInstType::VectorNarrowingWX      6011856      0.87%     86.78% # Class of executed instruction. (Count)
system.cpu.exec_context.thread_0.statExecutedInstType::VectorWideningVX            0      0.00%     86.78% # Class of executed instruction. (Count)
system.cpu.exec_context.thread_0.statExecutedInstType::VectorWideningWV        11008      0.00%     86.78% # Class of executed instruction. (Count)
system.cpu.exec_context.thread_0.statExecutedInstType::VectorWideningVV        93184      0.01%     86.79% # Class of executed instruction. (Count)
system.cpu.exec_context.thread_0.statExecutedInstType::VectorVdVs2Vs1Op     14170856      2.05%     88.84% # Class of executed instruction. (Count)
system.cpu.exec_context.thread_0.statExecutedInstType::VectorAIVs1Vs2Vd     45154368      6.53%     95.37% # Class of executed instruction. (Count)
system.cpu.exec_context.thread_0.statExecutedInstType::VectorAINVs1Vs2Vd     17547264      2.54%     97.91% # Class of executed instruction. (Count)
system.cpu.exec_context.thread_0.statExecutedInstType::VectorAINLhVs1Vs2Vd            0      0.00%     97.91% # Class of executed instruction. (Count)
system.cpu.exec_context.thread_0.statExecutedInstType::VectorAILhVs1Vs2Vd            0      0.00%     97.91% # Class of executed instruction. (Count)
system.cpu.exec_context.thread_0.statExecutedInstType::VectorVRXUNARY0            0      0.00%     97.91% # Class of executed instruction. (Count)
system.cpu.exec_context.thread_0.statExecutedInstType::VectorVRFUNARY0            0      0.00%     97.91% # Class of executed instruction. (Count)
system.cpu.exec_context.thread_0.statExecutedInstType::VectorVWFUNARY0            0      0.00%     97.91% # Class of executed instruction. (Count)
system.cpu.exec_context.thread_0.statExecutedInstType::VectorVFUNARY0      7233136      1.05%     98.96% # Class of executed instruction. (Count)
system.cpu.exec_context.thread_0.statExecutedInstType::VectorVWXUNARY0            0      0.00%     98.96% # Class of executed instruction. (Count)
system.cpu.exec_context.thread_0.statExecutedInstType::VectorVMUNARY0            0      0.00%     98.96% # Class of executed instruction. (Count)
system.cpu.exec_context.thread_0.statExecutedInstType::VectorIntegerExtension      4541440      0.66%     99.61% # Class of executed instruction. (Count)
system.cpu.exec_context.thread_0.statExecutedInstType::VectorMaskRegisterVdVs2Vs1            0      0.00%     99.61% # Class of executed instruction. (Count)
system.cpu.exec_context.thread_0.statExecutedInstType::VectorMaskRegisterVdVs2            0      0.00%     99.61% # Class of executed instruction. (Count)
system.cpu.exec_context.thread_0.statExecutedInstType::VectorWholeRegisterMove            0      0.00%     99.61% # Class of executed instruction. (Count)
system.cpu.exec_context.thread_0.statExecutedInstType::VectorCfg      2663018      0.39%    100.00% # Class of executed instruction. (Count)
system.cpu.exec_context.thread_0.statExecutedInstType::total    691251250                       # Class of executed instruction. (Count)
system.cpu.exec_context.thread_0.statExecutedInstTypeMonitor::(00:0x00014000-0x00014006)No_OpClass            0      0.00%      0.00% # Class of executed instruction being monitored (Count)
system.cpu.exec_context.thread_0.statExecutedInstTypeMonitor::(00:0x00014000-0x00014006)IntAlu     38451989     26.16%     26.16% # Class of executed instruction being monitored (Count)
system.cpu.exec_context.thread_0.statExecutedInstTypeMonitor::(00:0x00014000-0x00014006)IntMult       601358      0.41%     26.57% # Class of executed instruction being monitored (Count)
system.cpu.exec_context.thread_0.statExecutedInstTypeMonitor::(00:0x00014000-0x00014006)IntDiv            0      0.00%     26.57% # Class of executed instruction being monitored (Count)
system.cpu.exec_context.thread_0.statExecutedInstTypeMonitor::(00:0x00014000-0x00014006)FloatAdd            0      0.00%     26.57% # Class of executed instruction being monitored (Count)
system.cpu.exec_context.thread_0.statExecutedInstTypeMonitor::(00:0x00014000-0x00014006)FloatCmp            0      0.00%     26.57% # Class of executed instruction being monitored (Count)
system.cpu.exec_context.thread_0.statExecutedInstTypeMonitor::(00:0x00014000-0x00014006)FloatCvt            0      0.00%     26.57% # Class of executed instruction being monitored (Count)
system.cpu.exec_context.thread_0.statExecutedInstTypeMonitor::(00:0x00014000-0x00014006)FloatMult            0      0.00%     26.57% # Class of executed instruction being monitored (Count)
system.cpu.exec_context.thread_0.statExecutedInstTypeMonitor::(00:0x00014000-0x00014006)FloatMultAcc            0      0.00%     26.57% # Class of executed instruction being monitored (Count)
system.cpu.exec_context.thread_0.statExecutedInstTypeMonitor::(00:0x00014000-0x00014006)FloatDiv            0      0.00%     26.57% # Class of executed instruction being monitored (Count)
system.cpu.exec_context.thread_0.statExecutedInstTypeMonitor::(00:0x00014000-0x00014006)FloatMisc            0      0.00%     26.57% # Class of executed instruction being monitored (Count)
system.cpu.exec_context.thread_0.statExecutedInstTypeMonitor::(00:0x00014000-0x00014006)FloatSqrt            0      0.00%     26.57% # Class of executed instruction being monitored (Count)
system.cpu.exec_context.thread_0.statExecutedInstTypeMonitor::(00:0x00014000-0x00014006)SimdAdd            0      0.00%     26.57% # Class of executed instruction being monitored (Count)
system.cpu.exec_context.thread_0.statExecutedInstTypeMonitor::(00:0x00014000-0x00014006)SimdAddAcc            0      0.00%     26.57% # Class of executed instruction being monitored (Count)
system.cpu.exec_context.thread_0.statExecutedInstTypeMonitor::(00:0x00014000-0x00014006)SimdAlu            0      0.00%     26.57% # Class of executed instruction being monitored (Count)
system.cpu.exec_context.thread_0.statExecutedInstTypeMonitor::(00:0x00014000-0x00014006)SimdCmp            0      0.00%     26.57% # Class of executed instruction being monitored (Count)
system.cpu.exec_context.thread_0.statExecutedInstTypeMonitor::(00:0x00014000-0x00014006)SimdCvt            0      0.00%     26.57% # Class of executed instruction being monitored (Count)
system.cpu.exec_context.thread_0.statExecutedInstTypeMonitor::(00:0x00014000-0x00014006)SimdMisc            0      0.00%     26.57% # Class of executed instruction being monitored (Count)
system.cpu.exec_context.thread_0.statExecutedInstTypeMonitor::(00:0x00014000-0x00014006)SimdMult            0      0.00%     26.57% # Class of executed instruction being monitored (Count)
system.cpu.exec_context.thread_0.statExecutedInstTypeMonitor::(00:0x00014000-0x00014006)SimdMultAcc            0      0.00%     26.57% # Class of executed instruction being monitored (Count)
system.cpu.exec_context.thread_0.statExecutedInstTypeMonitor::(00:0x00014000-0x00014006)SimdShift            0      0.00%     26.57% # Class of executed instruction being monitored (Count)
system.cpu.exec_context.thread_0.statExecutedInstTypeMonitor::(00:0x00014000-0x00014006)SimdShiftAcc            0      0.00%     26.57% # Class of executed instruction being monitored (Count)
system.cpu.exec_context.thread_0.statExecutedInstTypeMonitor::(00:0x00014000-0x00014006)SimdDiv            0      0.00%     26.57% # Class of executed instruction being monitored (Count)
system.cpu.exec_context.thread_0.statExecutedInstTypeMonitor::(00:0x00014000-0x00014006)SimdSqrt            0      0.00%     26.57% # Class of executed instruction being monitored (Count)
system.cpu.exec_context.thread_0.statExecutedInstTypeMonitor::(00:0x00014000-0x00014006)SimdFloatAdd            0      0.00%     26.57% # Class of executed instruction being monitored (Count)
system.cpu.exec_context.thread_0.statExecutedInstTypeMonitor::(00:0x00014000-0x00014006)SimdFloatAlu            0      0.00%     26.57% # Class of executed instruction being monitored (Count)
system.cpu.exec_context.thread_0.statExecutedInstTypeMonitor::(00:0x00014000-0x00014006)SimdFloatCmp            0      0.00%     26.57% # Class of executed instruction being monitored (Count)
system.cpu.exec_context.thread_0.statExecutedInstTypeMonitor::(00:0x00014000-0x00014006)SimdFloatCvt            0      0.00%     26.57% # Class of executed instruction being monitored (Count)
system.cpu.exec_context.thread_0.statExecutedInstTypeMonitor::(00:0x00014000-0x00014006)SimdFloatDiv            0      0.00%     26.57% # Class of executed instruction being monitored (Count)
system.cpu.exec_context.thread_0.statExecutedInstTypeMonitor::(00:0x00014000-0x00014006)SimdFloatMisc            0      0.00%     26.57% # Class of executed instruction being monitored (Count)
system.cpu.exec_context.thread_0.statExecutedInstTypeMonitor::(00:0x00014000-0x00014006)SimdFloatMult            0      0.00%     26.57% # Class of executed instruction being monitored (Count)
system.cpu.exec_context.thread_0.statExecutedInstTypeMonitor::(00:0x00014000-0x00014006)SimdFloatMultAcc            0      0.00%     26.57% # Class of executed instruction being monitored (Count)
system.cpu.exec_context.thread_0.statExecutedInstTypeMonitor::(00:0x00014000-0x00014006)SimdFloatSqrt            0      0.00%     26.57% # Class of executed instruction being monitored (Count)
system.cpu.exec_context.thread_0.statExecutedInstTypeMonitor::(00:0x00014000-0x00014006)SimdReduceAdd            0      0.00%     26.57% # Class of executed instruction being monitored (Count)
system.cpu.exec_context.thread_0.statExecutedInstTypeMonitor::(00:0x00014000-0x00014006)SimdReduceAlu            0      0.00%     26.57% # Class of executed instruction being monitored (Count)
system.cpu.exec_context.thread_0.statExecutedInstTypeMonitor::(00:0x00014000-0x00014006)SimdReduceCmp            0      0.00%     26.57% # Class of executed instruction being monitored (Count)
system.cpu.exec_context.thread_0.statExecutedInstTypeMonitor::(00:0x00014000-0x00014006)SimdFloatReduceAdd            0      0.00%     26.57% # Class of executed instruction being monitored (Count)
system.cpu.exec_context.thread_0.statExecutedInstTypeMonitor::(00:0x00014000-0x00014006)SimdFloatReduceCmp            0      0.00%     26.57% # Class of executed instruction being monitored (Count)
system.cpu.exec_context.thread_0.statExecutedInstTypeMonitor::(00:0x00014000-0x00014006)SimdAes            0      0.00%     26.57% # Class of executed instruction being monitored (Count)
system.cpu.exec_context.thread_0.statExecutedInstTypeMonitor::(00:0x00014000-0x00014006)SimdAesMix            0      0.00%     26.57% # Class of executed instruction being monitored (Count)
system.cpu.exec_context.thread_0.statExecutedInstTypeMonitor::(00:0x00014000-0x00014006)SimdSha1Hash            0      0.00%     26.57% # Class of executed instruction being monitored (Count)
system.cpu.exec_context.thread_0.statExecutedInstTypeMonitor::(00:0x00014000-0x00014006)SimdSha1Hash2            0      0.00%     26.57% # Class of executed instruction being monitored (Count)
system.cpu.exec_context.thread_0.statExecutedInstTypeMonitor::(00:0x00014000-0x00014006)SimdSha256Hash            0      0.00%     26.57% # Class of executed instruction being monitored (Count)
system.cpu.exec_context.thread_0.statExecutedInstTypeMonitor::(00:0x00014000-0x00014006)SimdSha256Hash2            0      0.00%     26.57% # Class of executed instruction being monitored (Count)
system.cpu.exec_context.thread_0.statExecutedInstTypeMonitor::(00:0x00014000-0x00014006)SimdShaSigma2            0      0.00%     26.57% # Class of executed instruction being monitored (Count)
system.cpu.exec_context.thread_0.statExecutedInstTypeMonitor::(00:0x00014000-0x00014006)SimdShaSigma3            0      0.00%     26.57% # Class of executed instruction being monitored (Count)
system.cpu.exec_context.thread_0.statExecutedInstTypeMonitor::(00:0x00014000-0x00014006)SimdPredAlu            0      0.00%     26.57% # Class of executed instruction being monitored (Count)
system.cpu.exec_context.thread_0.statExecutedInstTypeMonitor::(00:0x00014000-0x00014006)MemRead      4520742      3.08%     29.65% # Class of executed instruction being monitored (Count)
system.cpu.exec_context.thread_0.statExecutedInstTypeMonitor::(00:0x00014000-0x00014006)MemWrite      1046722      0.71%     30.36% # Class of executed instruction being monitored (Count)
system.cpu.exec_context.thread_0.statExecutedInstTypeMonitor::(00:0x00014000-0x00014006)FloatMemRead           15      0.00%     30.36% # Class of executed instruction being monitored (Count)
system.cpu.exec_context.thread_0.statExecutedInstTypeMonitor::(00:0x00014000-0x00014006)FloatMemWrite            9      0.00%     30.36% # Class of executed instruction being monitored (Count)
system.cpu.exec_context.thread_0.statExecutedInstTypeMonitor::(00:0x00014000-0x00014006)IprAccess            0      0.00%     30.36% # Class of executed instruction being monitored (Count)
system.cpu.exec_context.thread_0.statExecutedInstTypeMonitor::(00:0x00014000-0x00014006)InstPrefetch            0      0.00%     30.36% # Class of executed instruction being monitored (Count)
system.cpu.exec_context.thread_0.statExecutedInstTypeMonitor::(00:0x00014000-0x00014006)VectorIndexedMemLoad            0      0.00%     30.36% # Class of executed instruction being monitored (Count)
system.cpu.exec_context.thread_0.statExecutedInstTypeMonitor::(00:0x00014000-0x00014006)VectorIndexedMemStore            0      0.00%     30.36% # Class of executed instruction being monitored (Count)
system.cpu.exec_context.thread_0.statExecutedInstTypeMonitor::(00:0x00014000-0x00014006)VectorStridedMemLoad            0      0.00%     30.36% # Class of executed instruction being monitored (Count)
system.cpu.exec_context.thread_0.statExecutedInstTypeMonitor::(00:0x00014000-0x00014006)VectorStridedMemStore            0      0.00%     30.36% # Class of executed instruction being monitored (Count)
system.cpu.exec_context.thread_0.statExecutedInstTypeMonitor::(00:0x00014000-0x00014006)VectorUnitStrideMemLoad     42484936     28.91%     59.27% # Class of executed instruction being monitored (Count)
system.cpu.exec_context.thread_0.statExecutedInstTypeMonitor::(00:0x00014000-0x00014006)VectorUnitStrideMemStore      3049271      2.07%     61.34% # Class of executed instruction being monitored (Count)
system.cpu.exec_context.thread_0.statExecutedInstTypeMonitor::(00:0x00014000-0x00014006)VectorOPIVI            0      0.00%     61.34% # Class of executed instruction being monitored (Count)
system.cpu.exec_context.thread_0.statExecutedInstTypeMonitor::(00:0x00014000-0x00014006)VectorOPIVISL       422904      0.29%     61.63% # Class of executed instruction being monitored (Count)
system.cpu.exec_context.thread_0.statExecutedInstTypeMonitor::(00:0x00014000-0x00014006)VectorVdVs2Rs1      7636834      5.20%     66.83% # Class of executed instruction being monitored (Count)
system.cpu.exec_context.thread_0.statExecutedInstTypeMonitor::(00:0x00014000-0x00014006)VectorVdVs2Rs1SL            0      0.00%     66.83% # Class of executed instruction being monitored (Count)
system.cpu.exec_context.thread_0.statExecutedInstTypeMonitor::(00:0x00014000-0x00014006)VectorVdVs2Fs1        38400      0.03%     66.85% # Class of executed instruction being monitored (Count)
system.cpu.exec_context.thread_0.statExecutedInstTypeMonitor::(00:0x00014000-0x00014006)VectorWideningVdVs2            0      0.00%     66.85% # Class of executed instruction being monitored (Count)
system.cpu.exec_context.thread_0.statExecutedInstTypeMonitor::(00:0x00014000-0x00014006)VectorNarrowingVV            0      0.00%     66.85% # Class of executed instruction being monitored (Count)
system.cpu.exec_context.thread_0.statExecutedInstTypeMonitor::(00:0x00014000-0x00014006)VectorNarrowingVI            0      0.00%     66.85% # Class of executed instruction being monitored (Count)
system.cpu.exec_context.thread_0.statExecutedInstTypeMonitor::(00:0x00014000-0x00014006)VectorNarrowingWX      3005928      2.05%     68.90% # Class of executed instruction being monitored (Count)
system.cpu.exec_context.thread_0.statExecutedInstTypeMonitor::(00:0x00014000-0x00014006)VectorWideningVX            0      0.00%     68.90% # Class of executed instruction being monitored (Count)
system.cpu.exec_context.thread_0.statExecutedInstTypeMonitor::(00:0x00014000-0x00014006)VectorWideningWV         5504      0.00%     68.90% # Class of executed instruction being monitored (Count)
system.cpu.exec_context.thread_0.statExecutedInstTypeMonitor::(00:0x00014000-0x00014006)VectorWideningVV        46592      0.03%     68.94% # Class of executed instruction being monitored (Count)
system.cpu.exec_context.thread_0.statExecutedInstTypeMonitor::(00:0x00014000-0x00014006)VectorVdVs2Vs1Op      7085428      4.82%     73.76% # Class of executed instruction being monitored (Count)
system.cpu.exec_context.thread_0.statExecutedInstTypeMonitor::(00:0x00014000-0x00014006)VectorAIVs1Vs2Vd     22577184     15.36%     89.12% # Class of executed instruction being monitored (Count)
system.cpu.exec_context.thread_0.statExecutedInstTypeMonitor::(00:0x00014000-0x00014006)VectorAINVs1Vs2Vd      8773632      5.97%     95.09% # Class of executed instruction being monitored (Count)
system.cpu.exec_context.thread_0.statExecutedInstTypeMonitor::(00:0x00014000-0x00014006)VectorAINLhVs1Vs2Vd            0      0.00%     95.09% # Class of executed instruction being monitored (Count)
system.cpu.exec_context.thread_0.statExecutedInstTypeMonitor::(00:0x00014000-0x00014006)VectorAILhVs1Vs2Vd            0      0.00%     95.09% # Class of executed instruction being monitored (Count)
system.cpu.exec_context.thread_0.statExecutedInstTypeMonitor::(00:0x00014000-0x00014006)VectorVRXUNARY0            0      0.00%     95.09% # Class of executed instruction being monitored (Count)
system.cpu.exec_context.thread_0.statExecutedInstTypeMonitor::(00:0x00014000-0x00014006)VectorVRFUNARY0            0      0.00%     95.09% # Class of executed instruction being monitored (Count)
system.cpu.exec_context.thread_0.statExecutedInstTypeMonitor::(00:0x00014000-0x00014006)VectorVWFUNARY0            0      0.00%     95.09% # Class of executed instruction being monitored (Count)
system.cpu.exec_context.thread_0.statExecutedInstTypeMonitor::(00:0x00014000-0x00014006)VectorVFUNARY0      3616568      2.46%     97.55% # Class of executed instruction being monitored (Count)
system.cpu.exec_context.thread_0.statExecutedInstTypeMonitor::(00:0x00014000-0x00014006)VectorVWXUNARY0            0      0.00%     97.55% # Class of executed instruction being monitored (Count)
system.cpu.exec_context.thread_0.statExecutedInstTypeMonitor::(00:0x00014000-0x00014006)VectorVMUNARY0            0      0.00%     97.55% # Class of executed instruction being monitored (Count)
system.cpu.exec_context.thread_0.statExecutedInstTypeMonitor::(00:0x00014000-0x00014006)VectorIntegerExtension      2270720      1.55%     99.09% # Class of executed instruction being monitored (Count)
system.cpu.exec_context.thread_0.statExecutedInstTypeMonitor::(00:0x00014000-0x00014006)VectorMaskRegisterVdVs2Vs1            0      0.00%     99.09% # Class of executed instruction being monitored (Count)
system.cpu.exec_context.thread_0.statExecutedInstTypeMonitor::(00:0x00014000-0x00014006)VectorMaskRegisterVdVs2            0      0.00%     99.09% # Class of executed instruction being monitored (Count)
system.cpu.exec_context.thread_0.statExecutedInstTypeMonitor::(00:0x00014000-0x00014006)VectorWholeRegisterMove            0      0.00%     99.09% # Class of executed instruction being monitored (Count)
system.cpu.exec_context.thread_0.statExecutedInstTypeMonitor::(00:0x00014000-0x00014006)VectorCfg      1331509      0.91%    100.00% # Class of executed instruction being monitored (Count)
system.cpu.exec_context.thread_0.statExecutedInstTypeMonitor::(01:0x00000000-0x00000000)No_OpClass            0      0.00%    100.00% # Class of executed instruction being monitored (Count)
system.cpu.exec_context.thread_0.statExecutedInstTypeMonitor::(01:0x00000000-0x00000000)IntAlu            0      0.00%    100.00% # Class of executed instruction being monitored (Count)
system.cpu.exec_context.thread_0.statExecutedInstTypeMonitor::(01:0x00000000-0x00000000)IntMult            0      0.00%    100.00% # Class of executed instruction being monitored (Count)
system.cpu.exec_context.thread_0.statExecutedInstTypeMonitor::(01:0x00000000-0x00000000)IntDiv            0      0.00%    100.00% # Class of executed instruction being monitored (Count)
system.cpu.exec_context.thread_0.statExecutedInstTypeMonitor::(01:0x00000000-0x00000000)FloatAdd            0      0.00%    100.00% # Class of executed instruction being monitored (Count)
system.cpu.exec_context.thread_0.statExecutedInstTypeMonitor::(01:0x00000000-0x00000000)FloatCmp            0      0.00%    100.00% # Class of executed instruction being monitored (Count)
system.cpu.exec_context.thread_0.statExecutedInstTypeMonitor::(01:0x00000000-0x00000000)FloatCvt            0      0.00%    100.00% # Class of executed instruction being monitored (Count)
system.cpu.exec_context.thread_0.statExecutedInstTypeMonitor::(01:0x00000000-0x00000000)FloatMult            0      0.00%    100.00% # Class of executed instruction being monitored (Count)
system.cpu.exec_context.thread_0.statExecutedInstTypeMonitor::(01:0x00000000-0x00000000)FloatMultAcc            0      0.00%    100.00% # Class of executed instruction being monitored (Count)
system.cpu.exec_context.thread_0.statExecutedInstTypeMonitor::(01:0x00000000-0x00000000)FloatDiv            0      0.00%    100.00% # Class of executed instruction being monitored (Count)
system.cpu.exec_context.thread_0.statExecutedInstTypeMonitor::(01:0x00000000-0x00000000)FloatMisc            0      0.00%    100.00% # Class of executed instruction being monitored (Count)
system.cpu.exec_context.thread_0.statExecutedInstTypeMonitor::(01:0x00000000-0x00000000)FloatSqrt            0      0.00%    100.00% # Class of executed instruction being monitored (Count)
system.cpu.exec_context.thread_0.statExecutedInstTypeMonitor::(01:0x00000000-0x00000000)SimdAdd            0      0.00%    100.00% # Class of executed instruction being monitored (Count)
system.cpu.exec_context.thread_0.statExecutedInstTypeMonitor::(01:0x00000000-0x00000000)SimdAddAcc            0      0.00%    100.00% # Class of executed instruction being monitored (Count)
system.cpu.exec_context.thread_0.statExecutedInstTypeMonitor::(01:0x00000000-0x00000000)SimdAlu            0      0.00%    100.00% # Class of executed instruction being monitored (Count)
system.cpu.exec_context.thread_0.statExecutedInstTypeMonitor::(01:0x00000000-0x00000000)SimdCmp            0      0.00%    100.00% # Class of executed instruction being monitored (Count)
system.cpu.exec_context.thread_0.statExecutedInstTypeMonitor::(01:0x00000000-0x00000000)SimdCvt            0      0.00%    100.00% # Class of executed instruction being monitored (Count)
system.cpu.exec_context.thread_0.statExecutedInstTypeMonitor::(01:0x00000000-0x00000000)SimdMisc            0      0.00%    100.00% # Class of executed instruction being monitored (Count)
system.cpu.exec_context.thread_0.statExecutedInstTypeMonitor::(01:0x00000000-0x00000000)SimdMult            0      0.00%    100.00% # Class of executed instruction being monitored (Count)
system.cpu.exec_context.thread_0.statExecutedInstTypeMonitor::(01:0x00000000-0x00000000)SimdMultAcc            0      0.00%    100.00% # Class of executed instruction being monitored (Count)
system.cpu.exec_context.thread_0.statExecutedInstTypeMonitor::(01:0x00000000-0x00000000)SimdShift            0      0.00%    100.00% # Class of executed instruction being monitored (Count)
system.cpu.exec_context.thread_0.statExecutedInstTypeMonitor::(01:0x00000000-0x00000000)SimdShiftAcc            0      0.00%    100.00% # Class of executed instruction being monitored (Count)
system.cpu.exec_context.thread_0.statExecutedInstTypeMonitor::(01:0x00000000-0x00000000)SimdDiv            0      0.00%    100.00% # Class of executed instruction being monitored (Count)
system.cpu.exec_context.thread_0.statExecutedInstTypeMonitor::(01:0x00000000-0x00000000)SimdSqrt            0      0.00%    100.00% # Class of executed instruction being monitored (Count)
system.cpu.exec_context.thread_0.statExecutedInstTypeMonitor::(01:0x00000000-0x00000000)SimdFloatAdd            0      0.00%    100.00% # Class of executed instruction being monitored (Count)
system.cpu.exec_context.thread_0.statExecutedInstTypeMonitor::(01:0x00000000-0x00000000)SimdFloatAlu            0      0.00%    100.00% # Class of executed instruction being monitored (Count)
system.cpu.exec_context.thread_0.statExecutedInstTypeMonitor::(01:0x00000000-0x00000000)SimdFloatCmp            0      0.00%    100.00% # Class of executed instruction being monitored (Count)
system.cpu.exec_context.thread_0.statExecutedInstTypeMonitor::(01:0x00000000-0x00000000)SimdFloatCvt            0      0.00%    100.00% # Class of executed instruction being monitored (Count)
system.cpu.exec_context.thread_0.statExecutedInstTypeMonitor::(01:0x00000000-0x00000000)SimdFloatDiv            0      0.00%    100.00% # Class of executed instruction being monitored (Count)
system.cpu.exec_context.thread_0.statExecutedInstTypeMonitor::(01:0x00000000-0x00000000)SimdFloatMisc            0      0.00%    100.00% # Class of executed instruction being monitored (Count)
system.cpu.exec_context.thread_0.statExecutedInstTypeMonitor::(01:0x00000000-0x00000000)SimdFloatMult            0      0.00%    100.00% # Class of executed instruction being monitored (Count)
system.cpu.exec_context.thread_0.statExecutedInstTypeMonitor::(01:0x00000000-0x00000000)SimdFloatMultAcc            0      0.00%    100.00% # Class of executed instruction being monitored (Count)
system.cpu.exec_context.thread_0.statExecutedInstTypeMonitor::(01:0x00000000-0x00000000)SimdFloatSqrt            0      0.00%    100.00% # Class of executed instruction being monitored (Count)
system.cpu.exec_context.thread_0.statExecutedInstTypeMonitor::(01:0x00000000-0x00000000)SimdReduceAdd            0      0.00%    100.00% # Class of executed instruction being monitored (Count)
system.cpu.exec_context.thread_0.statExecutedInstTypeMonitor::(01:0x00000000-0x00000000)SimdReduceAlu            0      0.00%    100.00% # Class of executed instruction being monitored (Count)
system.cpu.exec_context.thread_0.statExecutedInstTypeMonitor::(01:0x00000000-0x00000000)SimdReduceCmp            0      0.00%    100.00% # Class of executed instruction being monitored (Count)
system.cpu.exec_context.thread_0.statExecutedInstTypeMonitor::(01:0x00000000-0x00000000)SimdFloatReduceAdd            0      0.00%    100.00% # Class of executed instruction being monitored (Count)
system.cpu.exec_context.thread_0.statExecutedInstTypeMonitor::(01:0x00000000-0x00000000)SimdFloatReduceCmp            0      0.00%    100.00% # Class of executed instruction being monitored (Count)
system.cpu.exec_context.thread_0.statExecutedInstTypeMonitor::(01:0x00000000-0x00000000)SimdAes            0      0.00%    100.00% # Class of executed instruction being monitored (Count)
system.cpu.exec_context.thread_0.statExecutedInstTypeMonitor::(01:0x00000000-0x00000000)SimdAesMix            0      0.00%    100.00% # Class of executed instruction being monitored (Count)
system.cpu.exec_context.thread_0.statExecutedInstTypeMonitor::(01:0x00000000-0x00000000)SimdSha1Hash            0      0.00%    100.00% # Class of executed instruction being monitored (Count)
system.cpu.exec_context.thread_0.statExecutedInstTypeMonitor::(01:0x00000000-0x00000000)SimdSha1Hash2            0      0.00%    100.00% # Class of executed instruction being monitored (Count)
system.cpu.exec_context.thread_0.statExecutedInstTypeMonitor::(01:0x00000000-0x00000000)SimdSha256Hash            0      0.00%    100.00% # Class of executed instruction being monitored (Count)
system.cpu.exec_context.thread_0.statExecutedInstTypeMonitor::(01:0x00000000-0x00000000)SimdSha256Hash2            0      0.00%    100.00% # Class of executed instruction being monitored (Count)
system.cpu.exec_context.thread_0.statExecutedInstTypeMonitor::(01:0x00000000-0x00000000)SimdShaSigma2            0      0.00%    100.00% # Class of executed instruction being monitored (Count)
system.cpu.exec_context.thread_0.statExecutedInstTypeMonitor::(01:0x00000000-0x00000000)SimdShaSigma3            0      0.00%    100.00% # Class of executed instruction being monitored (Count)
system.cpu.exec_context.thread_0.statExecutedInstTypeMonitor::(01:0x00000000-0x00000000)SimdPredAlu            0      0.00%    100.00% # Class of executed instruction being monitored (Count)
system.cpu.exec_context.thread_0.statExecutedInstTypeMonitor::(01:0x00000000-0x00000000)MemRead            0      0.00%    100.00% # Class of executed instruction being monitored (Count)
system.cpu.exec_context.thread_0.statExecutedInstTypeMonitor::(01:0x00000000-0x00000000)MemWrite            0      0.00%    100.00% # Class of executed instruction being monitored (Count)
system.cpu.exec_context.thread_0.statExecutedInstTypeMonitor::(01:0x00000000-0x00000000)FloatMemRead            0      0.00%    100.00% # Class of executed instruction being monitored (Count)
system.cpu.exec_context.thread_0.statExecutedInstTypeMonitor::(01:0x00000000-0x00000000)FloatMemWrite            0      0.00%    100.00% # Class of executed instruction being monitored (Count)
system.cpu.exec_context.thread_0.statExecutedInstTypeMonitor::(01:0x00000000-0x00000000)IprAccess            0      0.00%    100.00% # Class of executed instruction being monitored (Count)
system.cpu.exec_context.thread_0.statExecutedInstTypeMonitor::(01:0x00000000-0x00000000)InstPrefetch            0      0.00%    100.00% # Class of executed instruction being monitored (Count)
system.cpu.exec_context.thread_0.statExecutedInstTypeMonitor::(01:0x00000000-0x00000000)VectorIndexedMemLoad            0      0.00%    100.00% # Class of executed instruction being monitored (Count)
system.cpu.exec_context.thread_0.statExecutedInstTypeMonitor::(01:0x00000000-0x00000000)VectorIndexedMemStore            0      0.00%    100.00% # Class of executed instruction being monitored (Count)
system.cpu.exec_context.thread_0.statExecutedInstTypeMonitor::(01:0x00000000-0x00000000)VectorStridedMemLoad            0      0.00%    100.00% # Class of executed instruction being monitored (Count)
system.cpu.exec_context.thread_0.statExecutedInstTypeMonitor::(01:0x00000000-0x00000000)VectorStridedMemStore            0      0.00%    100.00% # Class of executed instruction being monitored (Count)
system.cpu.exec_context.thread_0.statExecutedInstTypeMonitor::(01:0x00000000-0x00000000)VectorUnitStrideMemLoad            0      0.00%    100.00% # Class of executed instruction being monitored (Count)
system.cpu.exec_context.thread_0.statExecutedInstTypeMonitor::(01:0x00000000-0x00000000)VectorUnitStrideMemStore            0      0.00%    100.00% # Class of executed instruction being monitored (Count)
system.cpu.exec_context.thread_0.statExecutedInstTypeMonitor::(01:0x00000000-0x00000000)VectorOPIVI            0      0.00%    100.00% # Class of executed instruction being monitored (Count)
system.cpu.exec_context.thread_0.statExecutedInstTypeMonitor::(01:0x00000000-0x00000000)VectorOPIVISL            0      0.00%    100.00% # Class of executed instruction being monitored (Count)
system.cpu.exec_context.thread_0.statExecutedInstTypeMonitor::(01:0x00000000-0x00000000)VectorVdVs2Rs1            0      0.00%    100.00% # Class of executed instruction being monitored (Count)
system.cpu.exec_context.thread_0.statExecutedInstTypeMonitor::(01:0x00000000-0x00000000)VectorVdVs2Rs1SL            0      0.00%    100.00% # Class of executed instruction being monitored (Count)
system.cpu.exec_context.thread_0.statExecutedInstTypeMonitor::(01:0x00000000-0x00000000)VectorVdVs2Fs1            0      0.00%    100.00% # Class of executed instruction being monitored (Count)
system.cpu.exec_context.thread_0.statExecutedInstTypeMonitor::(01:0x00000000-0x00000000)VectorWideningVdVs2            0      0.00%    100.00% # Class of executed instruction being monitored (Count)
system.cpu.exec_context.thread_0.statExecutedInstTypeMonitor::(01:0x00000000-0x00000000)VectorNarrowingVV            0      0.00%    100.00% # Class of executed instruction being monitored (Count)
system.cpu.exec_context.thread_0.statExecutedInstTypeMonitor::(01:0x00000000-0x00000000)VectorNarrowingVI            0      0.00%    100.00% # Class of executed instruction being monitored (Count)
system.cpu.exec_context.thread_0.statExecutedInstTypeMonitor::(01:0x00000000-0x00000000)VectorNarrowingWX            0      0.00%    100.00% # Class of executed instruction being monitored (Count)
system.cpu.exec_context.thread_0.statExecutedInstTypeMonitor::(01:0x00000000-0x00000000)VectorWideningVX            0      0.00%    100.00% # Class of executed instruction being monitored (Count)
system.cpu.exec_context.thread_0.statExecutedInstTypeMonitor::(01:0x00000000-0x00000000)VectorWideningWV            0      0.00%    100.00% # Class of executed instruction being monitored (Count)
system.cpu.exec_context.thread_0.statExecutedInstTypeMonitor::(01:0x00000000-0x00000000)VectorWideningVV            0      0.00%    100.00% # Class of executed instruction being monitored (Count)
system.cpu.exec_context.thread_0.statExecutedInstTypeMonitor::(01:0x00000000-0x00000000)VectorVdVs2Vs1Op            0      0.00%    100.00% # Class of executed instruction being monitored (Count)
system.cpu.exec_context.thread_0.statExecutedInstTypeMonitor::(01:0x00000000-0x00000000)VectorAIVs1Vs2Vd            0      0.00%    100.00% # Class of executed instruction being monitored (Count)
system.cpu.exec_context.thread_0.statExecutedInstTypeMonitor::(01:0x00000000-0x00000000)VectorAINVs1Vs2Vd            0      0.00%    100.00% # Class of executed instruction being monitored (Count)
system.cpu.exec_context.thread_0.statExecutedInstTypeMonitor::(01:0x00000000-0x00000000)VectorAINLhVs1Vs2Vd            0      0.00%    100.00% # Class of executed instruction being monitored (Count)
system.cpu.exec_context.thread_0.statExecutedInstTypeMonitor::(01:0x00000000-0x00000000)VectorAILhVs1Vs2Vd            0      0.00%    100.00% # Class of executed instruction being monitored (Count)
system.cpu.exec_context.thread_0.statExecutedInstTypeMonitor::(01:0x00000000-0x00000000)VectorVRXUNARY0            0      0.00%    100.00% # Class of executed instruction being monitored (Count)
system.cpu.exec_context.thread_0.statExecutedInstTypeMonitor::(01:0x00000000-0x00000000)VectorVRFUNARY0            0      0.00%    100.00% # Class of executed instruction being monitored (Count)
system.cpu.exec_context.thread_0.statExecutedInstTypeMonitor::(01:0x00000000-0x00000000)VectorVWFUNARY0            0      0.00%    100.00% # Class of executed instruction being monitored (Count)
system.cpu.exec_context.thread_0.statExecutedInstTypeMonitor::(01:0x00000000-0x00000000)VectorVFUNARY0            0      0.00%    100.00% # Class of executed instruction being monitored (Count)
system.cpu.exec_context.thread_0.statExecutedInstTypeMonitor::(01:0x00000000-0x00000000)VectorVWXUNARY0            0      0.00%    100.00% # Class of executed instruction being monitored (Count)
system.cpu.exec_context.thread_0.statExecutedInstTypeMonitor::(01:0x00000000-0x00000000)VectorVMUNARY0            0      0.00%    100.00% # Class of executed instruction being monitored (Count)
system.cpu.exec_context.thread_0.statExecutedInstTypeMonitor::(01:0x00000000-0x00000000)VectorIntegerExtension            0      0.00%    100.00% # Class of executed instruction being monitored (Count)
system.cpu.exec_context.thread_0.statExecutedInstTypeMonitor::(01:0x00000000-0x00000000)VectorMaskRegisterVdVs2Vs1            0      0.00%    100.00% # Class of executed instruction being monitored (Count)
system.cpu.exec_context.thread_0.statExecutedInstTypeMonitor::(01:0x00000000-0x00000000)VectorMaskRegisterVdVs2            0      0.00%    100.00% # Class of executed instruction being monitored (Count)
system.cpu.exec_context.thread_0.statExecutedInstTypeMonitor::(01:0x00000000-0x00000000)VectorWholeRegisterMove            0      0.00%    100.00% # Class of executed instruction being monitored (Count)
system.cpu.exec_context.thread_0.statExecutedInstTypeMonitor::(01:0x00000000-0x00000000)VectorCfg            0      0.00%    100.00% # Class of executed instruction being monitored (Count)
system.cpu.exec_context.thread_0.statExecutedInstTypeMonitor::(02:0x00000000-0x00000000)No_OpClass            0      0.00%    100.00% # Class of executed instruction being monitored (Count)
system.cpu.exec_context.thread_0.statExecutedInstTypeMonitor::(02:0x00000000-0x00000000)IntAlu            0      0.00%    100.00% # Class of executed instruction being monitored (Count)
system.cpu.exec_context.thread_0.statExecutedInstTypeMonitor::(02:0x00000000-0x00000000)IntMult            0      0.00%    100.00% # Class of executed instruction being monitored (Count)
system.cpu.exec_context.thread_0.statExecutedInstTypeMonitor::(02:0x00000000-0x00000000)IntDiv            0      0.00%    100.00% # Class of executed instruction being monitored (Count)
system.cpu.exec_context.thread_0.statExecutedInstTypeMonitor::(02:0x00000000-0x00000000)FloatAdd            0      0.00%    100.00% # Class of executed instruction being monitored (Count)
system.cpu.exec_context.thread_0.statExecutedInstTypeMonitor::(02:0x00000000-0x00000000)FloatCmp            0      0.00%    100.00% # Class of executed instruction being monitored (Count)
system.cpu.exec_context.thread_0.statExecutedInstTypeMonitor::(02:0x00000000-0x00000000)FloatCvt            0      0.00%    100.00% # Class of executed instruction being monitored (Count)
system.cpu.exec_context.thread_0.statExecutedInstTypeMonitor::(02:0x00000000-0x00000000)FloatMult            0      0.00%    100.00% # Class of executed instruction being monitored (Count)
system.cpu.exec_context.thread_0.statExecutedInstTypeMonitor::(02:0x00000000-0x00000000)FloatMultAcc            0      0.00%    100.00% # Class of executed instruction being monitored (Count)
system.cpu.exec_context.thread_0.statExecutedInstTypeMonitor::(02:0x00000000-0x00000000)FloatDiv            0      0.00%    100.00% # Class of executed instruction being monitored (Count)
system.cpu.exec_context.thread_0.statExecutedInstTypeMonitor::(02:0x00000000-0x00000000)FloatMisc            0      0.00%    100.00% # Class of executed instruction being monitored (Count)
system.cpu.exec_context.thread_0.statExecutedInstTypeMonitor::(02:0x00000000-0x00000000)FloatSqrt            0      0.00%    100.00% # Class of executed instruction being monitored (Count)
system.cpu.exec_context.thread_0.statExecutedInstTypeMonitor::(02:0x00000000-0x00000000)SimdAdd            0      0.00%    100.00% # Class of executed instruction being monitored (Count)
system.cpu.exec_context.thread_0.statExecutedInstTypeMonitor::(02:0x00000000-0x00000000)SimdAddAcc            0      0.00%    100.00% # Class of executed instruction being monitored (Count)
system.cpu.exec_context.thread_0.statExecutedInstTypeMonitor::(02:0x00000000-0x00000000)SimdAlu            0      0.00%    100.00% # Class of executed instruction being monitored (Count)
system.cpu.exec_context.thread_0.statExecutedInstTypeMonitor::(02:0x00000000-0x00000000)SimdCmp            0      0.00%    100.00% # Class of executed instruction being monitored (Count)
system.cpu.exec_context.thread_0.statExecutedInstTypeMonitor::(02:0x00000000-0x00000000)SimdCvt            0      0.00%    100.00% # Class of executed instruction being monitored (Count)
system.cpu.exec_context.thread_0.statExecutedInstTypeMonitor::(02:0x00000000-0x00000000)SimdMisc            0      0.00%    100.00% # Class of executed instruction being monitored (Count)
system.cpu.exec_context.thread_0.statExecutedInstTypeMonitor::(02:0x00000000-0x00000000)SimdMult            0      0.00%    100.00% # Class of executed instruction being monitored (Count)
system.cpu.exec_context.thread_0.statExecutedInstTypeMonitor::(02:0x00000000-0x00000000)SimdMultAcc            0      0.00%    100.00% # Class of executed instruction being monitored (Count)
system.cpu.exec_context.thread_0.statExecutedInstTypeMonitor::(02:0x00000000-0x00000000)SimdShift            0      0.00%    100.00% # Class of executed instruction being monitored (Count)
system.cpu.exec_context.thread_0.statExecutedInstTypeMonitor::(02:0x00000000-0x00000000)SimdShiftAcc            0      0.00%    100.00% # Class of executed instruction being monitored (Count)
system.cpu.exec_context.thread_0.statExecutedInstTypeMonitor::(02:0x00000000-0x00000000)SimdDiv            0      0.00%    100.00% # Class of executed instruction being monitored (Count)
system.cpu.exec_context.thread_0.statExecutedInstTypeMonitor::(02:0x00000000-0x00000000)SimdSqrt            0      0.00%    100.00% # Class of executed instruction being monitored (Count)
system.cpu.exec_context.thread_0.statExecutedInstTypeMonitor::(02:0x00000000-0x00000000)SimdFloatAdd            0      0.00%    100.00% # Class of executed instruction being monitored (Count)
system.cpu.exec_context.thread_0.statExecutedInstTypeMonitor::(02:0x00000000-0x00000000)SimdFloatAlu            0      0.00%    100.00% # Class of executed instruction being monitored (Count)
system.cpu.exec_context.thread_0.statExecutedInstTypeMonitor::(02:0x00000000-0x00000000)SimdFloatCmp            0      0.00%    100.00% # Class of executed instruction being monitored (Count)
system.cpu.exec_context.thread_0.statExecutedInstTypeMonitor::(02:0x00000000-0x00000000)SimdFloatCvt            0      0.00%    100.00% # Class of executed instruction being monitored (Count)
system.cpu.exec_context.thread_0.statExecutedInstTypeMonitor::(02:0x00000000-0x00000000)SimdFloatDiv            0      0.00%    100.00% # Class of executed instruction being monitored (Count)
system.cpu.exec_context.thread_0.statExecutedInstTypeMonitor::(02:0x00000000-0x00000000)SimdFloatMisc            0      0.00%    100.00% # Class of executed instruction being monitored (Count)
system.cpu.exec_context.thread_0.statExecutedInstTypeMonitor::(02:0x00000000-0x00000000)SimdFloatMult            0      0.00%    100.00% # Class of executed instruction being monitored (Count)
system.cpu.exec_context.thread_0.statExecutedInstTypeMonitor::(02:0x00000000-0x00000000)SimdFloatMultAcc            0      0.00%    100.00% # Class of executed instruction being monitored (Count)
system.cpu.exec_context.thread_0.statExecutedInstTypeMonitor::(02:0x00000000-0x00000000)SimdFloatSqrt            0      0.00%    100.00% # Class of executed instruction being monitored (Count)
system.cpu.exec_context.thread_0.statExecutedInstTypeMonitor::(02:0x00000000-0x00000000)SimdReduceAdd            0      0.00%    100.00% # Class of executed instruction being monitored (Count)
system.cpu.exec_context.thread_0.statExecutedInstTypeMonitor::(02:0x00000000-0x00000000)SimdReduceAlu            0      0.00%    100.00% # Class of executed instruction being monitored (Count)
system.cpu.exec_context.thread_0.statExecutedInstTypeMonitor::(02:0x00000000-0x00000000)SimdReduceCmp            0      0.00%    100.00% # Class of executed instruction being monitored (Count)
system.cpu.exec_context.thread_0.statExecutedInstTypeMonitor::(02:0x00000000-0x00000000)SimdFloatReduceAdd            0      0.00%    100.00% # Class of executed instruction being monitored (Count)
system.cpu.exec_context.thread_0.statExecutedInstTypeMonitor::(02:0x00000000-0x00000000)SimdFloatReduceCmp            0      0.00%    100.00% # Class of executed instruction being monitored (Count)
system.cpu.exec_context.thread_0.statExecutedInstTypeMonitor::(02:0x00000000-0x00000000)SimdAes            0      0.00%    100.00% # Class of executed instruction being monitored (Count)
system.cpu.exec_context.thread_0.statExecutedInstTypeMonitor::(02:0x00000000-0x00000000)SimdAesMix            0      0.00%    100.00% # Class of executed instruction being monitored (Count)
system.cpu.exec_context.thread_0.statExecutedInstTypeMonitor::(02:0x00000000-0x00000000)SimdSha1Hash            0      0.00%    100.00% # Class of executed instruction being monitored (Count)
system.cpu.exec_context.thread_0.statExecutedInstTypeMonitor::(02:0x00000000-0x00000000)SimdSha1Hash2            0      0.00%    100.00% # Class of executed instruction being monitored (Count)
system.cpu.exec_context.thread_0.statExecutedInstTypeMonitor::(02:0x00000000-0x00000000)SimdSha256Hash            0      0.00%    100.00% # Class of executed instruction being monitored (Count)
system.cpu.exec_context.thread_0.statExecutedInstTypeMonitor::(02:0x00000000-0x00000000)SimdSha256Hash2            0      0.00%    100.00% # Class of executed instruction being monitored (Count)
system.cpu.exec_context.thread_0.statExecutedInstTypeMonitor::(02:0x00000000-0x00000000)SimdShaSigma2            0      0.00%    100.00% # Class of executed instruction being monitored (Count)
system.cpu.exec_context.thread_0.statExecutedInstTypeMonitor::(02:0x00000000-0x00000000)SimdShaSigma3            0      0.00%    100.00% # Class of executed instruction being monitored (Count)
system.cpu.exec_context.thread_0.statExecutedInstTypeMonitor::(02:0x00000000-0x00000000)SimdPredAlu            0      0.00%    100.00% # Class of executed instruction being monitored (Count)
system.cpu.exec_context.thread_0.statExecutedInstTypeMonitor::(02:0x00000000-0x00000000)MemRead            0      0.00%    100.00% # Class of executed instruction being monitored (Count)
system.cpu.exec_context.thread_0.statExecutedInstTypeMonitor::(02:0x00000000-0x00000000)MemWrite            0      0.00%    100.00% # Class of executed instruction being monitored (Count)
system.cpu.exec_context.thread_0.statExecutedInstTypeMonitor::(02:0x00000000-0x00000000)FloatMemRead            0      0.00%    100.00% # Class of executed instruction being monitored (Count)
system.cpu.exec_context.thread_0.statExecutedInstTypeMonitor::(02:0x00000000-0x00000000)FloatMemWrite            0      0.00%    100.00% # Class of executed instruction being monitored (Count)
system.cpu.exec_context.thread_0.statExecutedInstTypeMonitor::(02:0x00000000-0x00000000)IprAccess            0      0.00%    100.00% # Class of executed instruction being monitored (Count)
system.cpu.exec_context.thread_0.statExecutedInstTypeMonitor::(02:0x00000000-0x00000000)InstPrefetch            0      0.00%    100.00% # Class of executed instruction being monitored (Count)
system.cpu.exec_context.thread_0.statExecutedInstTypeMonitor::(02:0x00000000-0x00000000)VectorIndexedMemLoad            0      0.00%    100.00% # Class of executed instruction being monitored (Count)
system.cpu.exec_context.thread_0.statExecutedInstTypeMonitor::(02:0x00000000-0x00000000)VectorIndexedMemStore            0      0.00%    100.00% # Class of executed instruction being monitored (Count)
system.cpu.exec_context.thread_0.statExecutedInstTypeMonitor::(02:0x00000000-0x00000000)VectorStridedMemLoad            0      0.00%    100.00% # Class of executed instruction being monitored (Count)
system.cpu.exec_context.thread_0.statExecutedInstTypeMonitor::(02:0x00000000-0x00000000)VectorStridedMemStore            0      0.00%    100.00% # Class of executed instruction being monitored (Count)
system.cpu.exec_context.thread_0.statExecutedInstTypeMonitor::(02:0x00000000-0x00000000)VectorUnitStrideMemLoad            0      0.00%    100.00% # Class of executed instruction being monitored (Count)
system.cpu.exec_context.thread_0.statExecutedInstTypeMonitor::(02:0x00000000-0x00000000)VectorUnitStrideMemStore            0      0.00%    100.00% # Class of executed instruction being monitored (Count)
system.cpu.exec_context.thread_0.statExecutedInstTypeMonitor::(02:0x00000000-0x00000000)VectorOPIVI            0      0.00%    100.00% # Class of executed instruction being monitored (Count)
system.cpu.exec_context.thread_0.statExecutedInstTypeMonitor::(02:0x00000000-0x00000000)VectorOPIVISL            0      0.00%    100.00% # Class of executed instruction being monitored (Count)
system.cpu.exec_context.thread_0.statExecutedInstTypeMonitor::(02:0x00000000-0x00000000)VectorVdVs2Rs1            0      0.00%    100.00% # Class of executed instruction being monitored (Count)
system.cpu.exec_context.thread_0.statExecutedInstTypeMonitor::(02:0x00000000-0x00000000)VectorVdVs2Rs1SL            0      0.00%    100.00% # Class of executed instruction being monitored (Count)
system.cpu.exec_context.thread_0.statExecutedInstTypeMonitor::(02:0x00000000-0x00000000)VectorVdVs2Fs1            0      0.00%    100.00% # Class of executed instruction being monitored (Count)
[...]
system.mem_ctrls.dram.writeBursts                   0                       # Number of DRAM write bursts (Count)
system.mem_ctrls.dram.perBankRdBursts::0            0                       # Per bank write bursts (Count)
system.mem_ctrls.dram.perBankRdBursts::1            0                       # Per bank write bursts (Count)
system.mem_ctrls.dram.perBankRdBursts::2            0                       # Per bank write bursts (Count)
system.mem_ctrls.dram.perBankRdBursts::3            0                       # Per bank write bursts (Count)
system.mem_ctrls.dram.perBankRdBursts::4            0                       # Per bank write bursts (Count)
system.mem_ctrls.dram.perBankRdBursts::5            0                       # Per bank write bursts (Count)
system.mem_ctrls.dram.perBankRdBursts::6            0                       # Per bank write bursts (Count)
system.mem_ctrls.dram.perBankRdBursts::7            0                       # Per bank write bursts (Count)
system.mem_ctrls.dram.perBankRdBursts::8            0                       # Per bank write bursts (Count)
system.mem_ctrls.dram.perBankRdBursts::9            0                       # Per bank write bursts (Count)
system.mem_ctrls.dram.perBankRdBursts::10            0                       # Per bank write bursts (Count)
system.mem_ctrls.dram.perBankRdBursts::11            0                       # Per bank write bursts (Count)
system.mem_ctrls.dram.perBankRdBursts::12            0                       # Per bank write bursts (Count)
system.mem_ctrls.dram.perBankRdBursts::13            0                       # Per bank write bursts (Count)
system.mem_ctrls.dram.perBankRdBursts::14            0                       # Per bank write bursts (Count)
system.mem_ctrls.dram.perBankRdBursts::15            0                       # Per bank write bursts (Count)
system.mem_ctrls.dram.perBankWrBursts::0            0                       # Per bank write bursts (Count)
system.mem_ctrls.dram.perBankWrBursts::1            0                       # Per bank write bursts (Count)
system.mem_ctrls.dram.perBankWrBursts::2            0                       # Per bank write bursts (Count)
system.mem_ctrls.dram.perBankWrBursts::3            0                       # Per bank write bursts (Count)
system.mem_ctrls.dram.perBankWrBursts::4            0                       # Per bank write bursts (Count)
system.mem_ctrls.dram.perBankWrBursts::5            0                       # Per bank write bursts (Count)
system.mem_ctrls.dram.perBankWrBursts::6            0                       # Per bank write bursts (Count)
system.mem_ctrls.dram.perBankWrBursts::7            0                       # Per bank write bursts (Count)
system.mem_ctrls.dram.perBankWrBursts::8            0                       # Per bank write bursts (Count)
system.mem_ctrls.dram.perBankWrBursts::9            0                       # Per bank write bursts (Count)
system.mem_ctrls.dram.perBankWrBursts::10            0                       # Per bank write bursts (Count)
system.mem_ctrls.dram.perBankWrBursts::11            0                       # Per bank write bursts (Count)
system.mem_ctrls.dram.perBankWrBursts::12            0                       # Per bank write bursts (Count)
system.mem_ctrls.dram.perBankWrBursts::13            0                       # Per bank write bursts (Count)
system.mem_ctrls.dram.perBankWrBursts::14            0                       # Per bank write bursts (Count)
system.mem_ctrls.dram.perBankWrBursts::15            0                       # Per bank write bursts (Count)
system.mem_ctrls.dram.totQLat                       0                       # Total ticks spent queuing (Tick)
system.mem_ctrls.dram.totBusLat                     0                       # Total ticks spent in databus transfers (Tick)
system.mem_ctrls.dram.totMemAccLat                  0                       # Total ticks spent from burst creation until serviced by the DRAM (Tick)
system.mem_ctrls.dram.avgQLat                     nan                       # Average queueing delay per DRAM burst ((Tick/Count))
system.mem_ctrls.dram.avgBusLat                   nan                       # Average bus latency per DRAM burst ((Tick/Count))
system.mem_ctrls.dram.avgMemAccLat                nan                       # Average memory access latency per DRAM burst ((Tick/Count))
system.mem_ctrls.dram.readRowHits                   0                       # Number of row buffer hits during reads (Count)
system.mem_ctrls.dram.writeRowHits                  0                       # Number of row buffer hits during writes (Count)
system.mem_ctrls.dram.readRowHitRate              nan                       # Row buffer hit rate for reads (Ratio)
system.mem_ctrls.dram.writeRowHitRate             nan                       # Row buffer hit rate for writes (Ratio)
system.mem_ctrls.dram.bytesRead                     0                       # Total bytes read (Byte)
system.mem_ctrls.dram.bytesWritten                  0                       # Total bytes written (Byte)
system.mem_ctrls.dram.avgRdBW                       0                       # Average DRAM read bandwidth in MiBytes/s ((Byte/Second))
system.mem_ctrls.dram.avgWrBW                       0                       # Average DRAM write bandwidth in MiBytes/s ((Byte/Second))
system.mem_ctrls.dram.peakBW                 12800.00                       # Theoretical peak bandwidth in MiByte/s ((Byte/Second))
system.mem_ctrls.dram.busUtil                    0.00                       # Data bus utilization in percentage (Ratio)
system.mem_ctrls.dram.busUtilRead                0.00                       # Data bus utilization in percentage for reads (Ratio)
system.mem_ctrls.dram.busUtilWrite               0.00                       # Data bus utilization in percentage for writes (Ratio)
system.mem_ctrls.dram.pageHitRate                 nan                       # Row buffer hit rate, read and write combined (Ratio)
system.mem_ctrls.dram.power_state.pwrStateResidencyTicks::UNDEFINED   2240793577                       # Cumulative time (in ticks) in various power states (Tick)
system.mem_ctrls.dram.rank0.actEnergy               0                       # Energy for activate commands per rank (pJ) (Joule)
system.mem_ctrls.dram.rank0.preEnergy               0                       # Energy for precharge commands per rank (pJ) (Joule)
system.mem_ctrls.dram.rank0.readEnergy              0                       # Energy for read commands per rank (pJ) (Joule)
system.mem_ctrls.dram.rank0.writeEnergy             0                       # Energy for write commands per rank (pJ) (Joule)
system.mem_ctrls.dram.rank0.refreshEnergy            0                       # Energy for refresh commands per rank (pJ) (Joule)
system.mem_ctrls.dram.rank0.actBackEnergy            0                       # Energy for active background per rank (pJ) (Joule)
system.mem_ctrls.dram.rank0.preBackEnergy 860464733568                       # Energy for precharge background per rank (pJ) (Joule)
system.mem_ctrls.dram.rank0.actPowerDownEnergy            0                       # Energy for active power-down per rank (pJ) (Joule)
system.mem_ctrls.dram.rank0.prePowerDownEnergy            0                       # Energy for precharge power-down per rank (pJ) (Joule)
system.mem_ctrls.dram.rank0.selfRefreshEnergy            0                       # Energy for self refresh per rank (pJ) (Joule)
system.mem_ctrls.dram.rank0.totalEnergy  860464733568                       # Total energy per rank (pJ) (Joule)
system.mem_ctrls.dram.rank0.averagePower          384                       # Core power per rank (mW) (Watt)
system.mem_ctrls.dram.rank0.totalIdleTime            0                       # Total Idle time Per DRAM Rank (Tick)
system.mem_ctrls.dram.rank0.pwrStateTime::IDLE   2240793577                       # Time in different power states (Tick)
system.mem_ctrls.dram.rank0.pwrStateTime::REF            0                       # Time in different power states (Tick)
system.mem_ctrls.dram.rank0.pwrStateTime::SREF            0                       # Time in different power states (Tick)
system.mem_ctrls.dram.rank0.pwrStateTime::PRE_PDN            0                       # Time in different power states (Tick)
system.mem_ctrls.dram.rank0.pwrStateTime::ACT            0                       # Time in different power states (Tick)
system.mem_ctrls.dram.rank0.pwrStateTime::ACT_PDN            0                       # Time in different power states (Tick)
system.mem_ctrls.dram.rank1.actEnergy               0                       # Energy for activate commands per rank (pJ) (Joule)
system.mem_ctrls.dram.rank1.preEnergy               0                       # Energy for precharge commands per rank (pJ) (Joule)
system.mem_ctrls.dram.rank1.readEnergy              0                       # Energy for read commands per rank (pJ) (Joule)
system.mem_ctrls.dram.rank1.writeEnergy             0                       # Energy for write commands per rank (pJ) (Joule)
system.mem_ctrls.dram.rank1.refreshEnergy            0                       # Energy for refresh commands per rank (pJ) (Joule)
system.mem_ctrls.dram.rank1.actBackEnergy            0                       # Energy for active background per rank (pJ) (Joule)
system.mem_ctrls.dram.rank1.preBackEnergy 860464733568                       # Energy for precharge background per rank (pJ) (Joule)
system.mem_ctrls.dram.rank1.actPowerDownEnergy            0                       # Energy for active power-down per rank (pJ) (Joule)
system.mem_ctrls.dram.rank1.prePowerDownEnergy            0                       # Energy for precharge power-down per rank (pJ) (Joule)
system.mem_ctrls.dram.rank1.selfRefreshEnergy            0                       # Energy for self refresh per rank (pJ) (Joule)
system.mem_ctrls.dram.rank1.totalEnergy  860464733568                       # Total energy per rank (pJ) (Joule)
system.mem_ctrls.dram.rank1.averagePower          384                       # Core power per rank (mW) (Watt)
system.mem_ctrls.dram.rank1.totalIdleTime            0                       # Total Idle time Per DRAM Rank (Tick)
system.mem_ctrls.dram.rank1.pwrStateTime::IDLE   2240793577                       # Time in different power states (Tick)
system.mem_ctrls.dram.rank1.pwrStateTime::REF            0                       # Time in different power states (Tick)
system.mem_ctrls.dram.rank1.pwrStateTime::SREF            0                       # Time in different power states (Tick)
system.mem_ctrls.dram.rank1.pwrStateTime::PRE_PDN            0                       # Time in different power states (Tick)
system.mem_ctrls.dram.rank1.pwrStateTime::ACT            0                       # Time in different power states (Tick)
system.mem_ctrls.dram.rank1.pwrStateTime::ACT_PDN            0                       # Time in different power states (Tick)
system.mem_ctrls.power_state.pwrStateResidencyTicks::UNDEFINED   2240793577                       # Cumulative time (in ticks) in various power states (Tick)
system.membus.transDist::ReadResp             1995229                       # Transaction distribution (Count)
system.membus.transDist::WritebackDirty       1703163                       # Transaction distribution (Count)
system.membus.transDist::CleanEvict           1964384                       # Transaction distribution (Count)
system.membus.transDist::ReadExReq            1689370                       # Transaction distribution (Count)
system.membus.transDist::ReadExResp           1689370                       # Transaction distribution (Count)
system.membus.transDist::ReadSharedReq        1995229                       # Transaction distribution (Count)
system.membus.pktCount_system.l2.mem_side_port::system.mem_ctrls.port     11036745                       # Packet count per connected requestor and responder (Count)
system.membus.pktCount::total                11036745                       # Packet count per connected requestor and responder (Count)
system.membus.pktSize_system.l2.mem_side_port::system.mem_ctrls.port    344816768                       # Cumulative packet size per connected requestor and responder (Byte)
system.membus.pktSize::total                344816768                       # Cumulative packet size per connected requestor and responder (Byte)
system.membus.snoops                                0                       # Total snoops (Count)
system.membus.snoopTraffic                          0                       # Total snoop traffic (Byte)
system.membus.snoopFanout::samples            3684599                       # Request fanout histogram (Count)
system.membus.snoopFanout::mean                     0                       # Request fanout histogram (Count)
system.membus.snoopFanout::stdev                    0                       # Request fanout histogram (Count)
system.membus.snoopFanout::underflows               0      0.00%      0.00% # Request fanout histogram (Count)
system.membus.snoopFanout::0                  3684599    100.00%    100.00% # Request fanout histogram (Count)
system.membus.snoopFanout::1                        0      0.00%    100.00% # Request fanout histogram (Count)
system.membus.snoopFanout::overflows                0      0.00%    100.00% # Request fanout histogram (Count)
system.membus.snoopFanout::min_value                0                       # Request fanout histogram (Count)
system.membus.snoopFanout::max_value                0                       # Request fanout histogram (Count)
system.membus.snoopFanout::total              3684599                       # Request fanout histogram (Count)
system.membus.power_state.pwrStateResidencyTicks::UNDEFINED   2240793577                       # Cumulative time (in ticks) in various power states (Tick)
system.membus.snoop_filter.totRequests        7352146                       # Total number of requests made to the snoop filter. (Count)
system.membus.snoop_filter.hitSingleRequests      3667547                       # Number of requests hitting in the snoop filter with a single holder of the requested data. (Count)
system.membus.snoop_filter.hitMultiRequests            0                       # Number of requests hitting in the snoop filter with multiple (>1) holders of the requested data. (Count)
system.membus.snoop_filter.totSnoops                0                       # Total number of snoops made to the snoop filter. (Count)
system.membus.snoop_filter.hitSingleSnoops            0                       # Number of snoops hitting in the snoop filter with a single holder of the requested data. (Count)
system.membus.snoop_filter.hitMultiSnoops            0                       # Number of snoops hitting in the snoop filter with multiple (>1) holders of the requested data. (Count)
system.tol2bus.transDist::ReadResp           12216916                       # Transaction distribution (Count)
system.tol2bus.transDist::WritebackDirty      2838891                       # Transaction distribution (Count)
system.tol2bus.transDist::WritebackClean         4646                       # Transaction distribution (Count)
system.tol2bus.transDist::CleanEvict         11278128                       # Transaction distribution (Count)
system.tol2bus.transDist::ReadExReq           1906797                       # Transaction distribution (Count)
system.tol2bus.transDist::ReadExResp          1906797                       # Transaction distribution (Count)
system.tol2bus.transDist::ReadCleanReq           5670                       # Transaction distribution (Count)
system.tol2bus.transDist::ReadSharedReq      12211246                       # Transaction distribution (Count)
system.tol2bus.pktCount_system.cpu.icache.mem_side_port::system.l2.cpu_side_port        15986                       # Packet count per connected requestor and responder (Count)
system.tol2bus.pktCount_system.cpu.dcache.mem_side_port::system.l2.cpu_side_port     42353105                       # Packet count per connected requestor and responder (Count)
system.tol2bus.pktCount::total               42369091                       # Packet count per connected requestor and responder (Count)
system.tol2bus.pktSize_system.cpu.icache.mem_side_port::system.l2.cpu_side_port       660224                       # Cumulative packet size per connected requestor and responder (Byte)
system.tol2bus.pktSize_system.cpu.dcache.mem_side_port::system.l2.cpu_side_port   1085243776                       # Cumulative packet size per connected requestor and responder (Byte)
system.tol2bus.pktSize::total              1085904000                       # Cumulative packet size per connected requestor and responder (Byte)
system.tol2bus.snoops                         3672169                       # Total snoops (Count)
system.tol2bus.snoopTraffic                 109002432                       # Total snoop traffic (Byte)
system.tol2bus.snoopFanout::samples          17795882                       # Request fanout histogram (Count)
system.tol2bus.snoopFanout::mean             0.000627                       # Request fanout histogram (Count)
system.tol2bus.snoopFanout::stdev            0.025032                       # Request fanout histogram (Count)
system.tol2bus.snoopFanout::underflows              0      0.00%      0.00% # Request fanout histogram (Count)
system.tol2bus.snoopFanout::0                17784724     99.94%     99.94% # Request fanout histogram (Count)
system.tol2bus.snoopFanout::1                   11158      0.06%    100.00% # Request fanout histogram (Count)
system.tol2bus.snoopFanout::2                       0      0.00%    100.00% # Request fanout histogram (Count)
system.tol2bus.snoopFanout::3                       0      0.00%    100.00% # Request fanout histogram (Count)
system.tol2bus.snoopFanout::4                       0      0.00%    100.00% # Request fanout histogram (Count)
system.tol2bus.snoopFanout::overflows               0      0.00%    100.00% # Request fanout histogram (Count)
system.tol2bus.snoopFanout::min_value               0                       # Request fanout histogram (Count)
system.tol2bus.snoopFanout::max_value               1                       # Request fanout histogram (Count)
system.tol2bus.snoopFanout::total            17795882                       # Request fanout histogram (Count)
system.tol2bus.power_state.pwrStateResidencyTicks::UNDEFINED   2240793577                       # Cumulative time (in ticks) in various power states (Tick)
system.tol2bus.snoop_filter.totRequests      28245378                       # Total number of requests made to the snoop filter. (Count)
system.tol2bus.snoop_filter.hitSingleRequests     14121665                       # Number of requests hitting in the snoop filter with a single holder of the requested data. (Count)
system.tol2bus.snoop_filter.hitMultiRequests            0                       # Number of requests hitting in the snoop filter with multiple (>1) holders of the requested data. (Count)
system.tol2bus.snoop_filter.totSnoops           11158                       # Total number of snoops made to the snoop filter. (Count)
system.tol2bus.snoop_filter.hitSingleSnoops        11158                       # Number of snoops hitting in the snoop filter with a single holder of the requested data. (Count)
system.tol2bus.snoop_filter.hitMultiSnoops            0                       # Number of snoops hitting in the snoop filter with multiple (>1) holders of the requested data. (Count)
system.voltage_domain.voltage                       1                       # Voltage in Volts (Volt)
system.workload.inst.arm                            0                       # number of arm instructions executed (Count)
system.workload.inst.quiesce                        0                       # number of quiesce instructions executed (Count)

---------- End Simulation Statistics   ----------
