
---------- Begin Simulation Statistics ----------
simSeconds                                   2.304054                       # Number of seconds simulated (Second)
simTicks                                   2304053625                       # Number of ticks simulated (Tick)
finalTick                                  2304053625                       # Number of ticks from beginning of simulation (restored from checkpoints and never reset) (Tick)
simFreq                                    1000000000                       # The number of ticks per simulated second ((Tick/Second))
hostSeconds                                    391.97                       # Real time elapsed on the host (Second)
hostTickRate                                  5878167                       # The number of ticks simulated per host second (ticks/s) ((Tick/Second))
hostMemory                                     818356                       # Number of bytes of host memory used (Byte)
simInsts                                    624711653                       # Number of instructions simulated (Count)
simVecInsts                                 135838460                       # Number of vector instructions simulated (Count)
simOps                                      630001112                       # Number of ops (including micro ops) simulated (Count)
hostInstRate                                  1593782                       # Simulator instruction rate (inst/s) ((Count/Second))
hostOpRate                                    1607276                       # Simulator op (including micro ops) rate (op/s) ((Count/Second))
system.clk_domain.clock                             1                       # Clock period in ticks (Tick)
system.cpu.numCycles                        765739877                       # Number of cpu cycles simulated (Cycle)
system.cpu.numWorkItemsStarted                      0                       # Number of work items this cpu started (Count)
system.cpu.numWorkItemsCompleted                    0                       # Number of work items this cpu completed (Count)
system.cpu.dcache.demandHits::cpu.data      240262945                       # number of demand (read+write) hits (Count)
system.cpu.dcache.demandHits::total         240262945                       # number of demand (read+write) hits (Count)
system.cpu.dcache.overallHits::cpu.data     240262945                       # number of overall hits (Count)
system.cpu.dcache.overallHits::total        240262945                       # number of overall hits (Count)
system.cpu.dcache.demandMisses::cpu.data     14627805                       # number of demand (read+write) misses (Count)
system.cpu.dcache.demandMisses::total        14627805                       # number of demand (read+write) misses (Count)
system.cpu.dcache.overallMisses::cpu.data     14627805                       # number of overall misses (Count)
system.cpu.dcache.overallMisses::total       14627805                       # number of overall misses (Count)
system.cpu.dcache.demandAccesses::cpu.data    254890750                       # number of demand (read+write) accesses (Count)
system.cpu.dcache.demandAccesses::total     254890750                       # number of demand (read+write) accesses (Count)
system.cpu.dcache.overallAccesses::cpu.data    254890750                       # number of overall (read+write) accesses (Count)
system.cpu.dcache.overallAccesses::total    254890750                       # number of overall (read+write) accesses (Count)
system.cpu.dcache.demandMissRate::cpu.data     0.057389                       # miss rate for demand accesses (Ratio)
system.cpu.dcache.demandMissRate::total      0.057389                       # miss rate for demand accesses (Ratio)
system.cpu.dcache.overallMissRate::cpu.data     0.057389                       # miss rate for overall accesses (Ratio)
system.cpu.dcache.overallMissRate::total     0.057389                       # miss rate for overall accesses (Ratio)
system.cpu.dcache.blockedCycles::no_mshrs            0                       # number of cycles access was blocked (Cycle)
system.cpu.dcache.blockedCycles::no_targets            0                       # number of cycles access was blocked (Cycle)
system.cpu.dcache.blockedCauses::no_mshrs            0                       # number of times access was blocked (Count)
system.cpu.dcache.blockedCauses::no_targets            0                       # number of times access was blocked (Count)
system.cpu.dcache.avgBlocked::no_mshrs            nan                       # average number of cycles each access was blocked ((Cycle/Count))
system.cpu.dcache.avgBlocked::no_targets          nan                       # average number of cycles each access was blocked ((Cycle/Count))
system.cpu.dcache.writebacks::writebacks      3257767                       # number of writebacks (Count)
system.cpu.dcache.writebacks::total           3257767                       # number of writebacks (Count)
system.cpu.dcache.replacements               14626790                       # number of replacements (Count)
system.cpu.dcache.LoadLockedReq.hits::cpu.data          671                       # number of LoadLockedReq hits (Count)
system.cpu.dcache.LoadLockedReq.hits::total          671                       # number of LoadLockedReq hits (Count)
system.cpu.dcache.LoadLockedReq.misses::cpu.data            4                       # number of LoadLockedReq misses (Count)
system.cpu.dcache.LoadLockedReq.misses::total            4                       # number of LoadLockedReq misses (Count)
system.cpu.dcache.LoadLockedReq.accesses::cpu.data          675                       # number of LoadLockedReq accesses(hits+misses) (Count)
system.cpu.dcache.LoadLockedReq.accesses::total          675                       # number of LoadLockedReq accesses(hits+misses) (Count)
system.cpu.dcache.LoadLockedReq.missRate::cpu.data     0.005926                       # miss rate for LoadLockedReq accesses (Ratio)
system.cpu.dcache.LoadLockedReq.missRate::total     0.005926                       # miss rate for LoadLockedReq accesses (Ratio)
system.cpu.dcache.ReadReq.hits::cpu.data    118465961                       # number of ReadReq hits (Count)
system.cpu.dcache.ReadReq.hits::total       118465961                       # number of ReadReq hits (Count)
system.cpu.dcache.ReadReq.misses::cpu.data     12424794                       # number of ReadReq misses (Count)
system.cpu.dcache.ReadReq.misses::total      12424794                       # number of ReadReq misses (Count)
system.cpu.dcache.ReadReq.accesses::cpu.data    130890755                       # number of ReadReq accesses(hits+misses) (Count)
system.cpu.dcache.ReadReq.accesses::total    130890755                       # number of ReadReq accesses(hits+misses) (Count)
system.cpu.dcache.ReadReq.missRate::cpu.data     0.094925                       # miss rate for ReadReq accesses (Ratio)
system.cpu.dcache.ReadReq.missRate::total     0.094925                       # miss rate for ReadReq accesses (Ratio)
system.cpu.dcache.StoreCondReq.hits::cpu.data          675                       # number of StoreCondReq hits (Count)
system.cpu.dcache.StoreCondReq.hits::total          675                       # number of StoreCondReq hits (Count)
system.cpu.dcache.StoreCondReq.accesses::cpu.data          675                       # number of StoreCondReq accesses(hits+misses) (Count)
system.cpu.dcache.StoreCondReq.accesses::total          675                       # number of StoreCondReq accesses(hits+misses) (Count)
system.cpu.dcache.SwapReq.hits::cpu.data         3946                       # number of SwapReq hits (Count)
system.cpu.dcache.SwapReq.hits::total            3946                       # number of SwapReq hits (Count)
system.cpu.dcache.SwapReq.misses::cpu.data            5                       # number of SwapReq misses (Count)
system.cpu.dcache.SwapReq.misses::total             5                       # number of SwapReq misses (Count)
system.cpu.dcache.SwapReq.accesses::cpu.data         3951                       # number of SwapReq accesses(hits+misses) (Count)
system.cpu.dcache.SwapReq.accesses::total         3951                       # number of SwapReq accesses(hits+misses) (Count)
system.cpu.dcache.SwapReq.missRate::cpu.data     0.001266                       # miss rate for SwapReq accesses (Ratio)
system.cpu.dcache.SwapReq.missRate::total     0.001266                       # miss rate for SwapReq accesses (Ratio)
system.cpu.dcache.WriteReq.hits::cpu.data    121796984                       # number of WriteReq hits (Count)
system.cpu.dcache.WriteReq.hits::total      121796984                       # number of WriteReq hits (Count)
system.cpu.dcache.WriteReq.misses::cpu.data      2203011                       # number of WriteReq misses (Count)
system.cpu.dcache.WriteReq.misses::total      2203011                       # number of WriteReq misses (Count)
system.cpu.dcache.WriteReq.accesses::cpu.data    123999995                       # number of WriteReq accesses(hits+misses) (Count)
system.cpu.dcache.WriteReq.accesses::total    123999995                       # number of WriteReq accesses(hits+misses) (Count)
system.cpu.dcache.WriteReq.missRate::cpu.data     0.017766                       # miss rate for WriteReq accesses (Ratio)
system.cpu.dcache.WriteReq.missRate::total     0.017766                       # miss rate for WriteReq accesses (Ratio)
system.cpu.dcache.power_state.pwrStateResidencyTicks::UNDEFINED   2304053625                       # Cumulative time (in ticks) in various power states (Tick)
system.cpu.dcache.tags.tagsInUse          1023.856595                       # Average ticks per tags in use ((Tick/Count))
system.cpu.dcache.tags.totalRefs            254896051                       # Total number of references to valid blocks. (Count)
system.cpu.dcache.tags.sampledRefs           14627814                       # Sample count of references to valid blocks. (Count)
system.cpu.dcache.tags.avgRefs              17.425437                       # Average number of references to valid blocks. ((Count/Count))
system.cpu.dcache.tags.warmupTick                 146                       # The tick when the warmup percentage was hit. (Tick)
system.cpu.dcache.tags.occupancies::cpu.data  1023.856595                       # Average occupied blocks per tick, per requestor ((Count/Tick))
system.cpu.dcache.tags.avgOccs::cpu.data     0.999860                       # Average percentage of cache occupancy ((Ratio/Tick))
system.cpu.dcache.tags.avgOccs::total        0.999860                       # Average percentage of cache occupancy ((Ratio/Tick))
system.cpu.dcache.tags.occupanciesTaskId::1024         1024                       # Occupied blocks per task id (Count)
system.cpu.dcache.tags.ageTaskId_1024::0           48                       # Occupied blocks per task id, per block age (Count)
system.cpu.dcache.tags.ageTaskId_1024::1          246                       # Occupied blocks per task id, per block age (Count)
system.cpu.dcache.tags.ageTaskId_1024::2          677                       # Occupied blocks per task id, per block age (Count)
system.cpu.dcache.tags.ageTaskId_1024::3           53                       # Occupied blocks per task id, per block age (Count)
system.cpu.dcache.tags.ratioOccsTaskId::1024            1                       # Ratio of occupied blocks and all blocks, per task id (Ratio)
system.cpu.dcache.tags.tagAccesses         1034212018                       # Number of tag accesses (Count)
system.cpu.dcache.tags.dataAccesses        1034212018                       # Number of data accesses (Count)
system.cpu.dcache.tags.power_state.pwrStateResidencyTicks::UNDEFINED   2304053625                       # Cumulative time (in ticks) in various power states (Tick)
system.cpu.dtb_walker_cache.blockedCycles::no_mshrs            0                       # number of cycles access was blocked (Cycle)
system.cpu.dtb_walker_cache.blockedCycles::no_targets            0                       # number of cycles access was blocked (Cycle)
system.cpu.dtb_walker_cache.blockedCauses::no_mshrs            0                       # number of times access was blocked (Count)
system.cpu.dtb_walker_cache.blockedCauses::no_targets            0                       # number of times access was blocked (Count)
system.cpu.dtb_walker_cache.avgBlocked::no_mshrs          nan                       # average number of cycles each access was blocked ((Cycle/Count))
system.cpu.dtb_walker_cache.avgBlocked::no_targets          nan                       # average number of cycles each access was blocked ((Cycle/Count))
system.cpu.dtb_walker_cache.replacements            0                       # number of replacements (Count)
system.cpu.dtb_walker_cache.power_state.pwrStateResidencyTicks::UNDEFINED   2304053625                       # Cumulative time (in ticks) in various power states (Tick)
system.cpu.dtb_walker_cache.tags.tagsInUse            0                       # Average ticks per tags in use ((Tick/Count))
system.cpu.dtb_walker_cache.tags.totalRefs            0                       # Total number of references to valid blocks. (Count)
system.cpu.dtb_walker_cache.tags.sampledRefs            0                       # Sample count of references to valid blocks. (Count)
system.cpu.dtb_walker_cache.tags.avgRefs          nan                       # Average number of references to valid blocks. ((Count/Count))
system.cpu.dtb_walker_cache.tags.warmupTick            0                       # The tick when the warmup percentage was hit. (Tick)
system.cpu.dtb_walker_cache.tags.tagAccesses            0                       # Number of tag accesses (Count)
system.cpu.dtb_walker_cache.tags.dataAccesses            0                       # Number of data accesses (Count)
system.cpu.dtb_walker_cache.tags.power_state.pwrStateResidencyTicks::UNDEFINED   2304053625                       # Cumulative time (in ticks) in various power states (Tick)
system.cpu.exec_context.thread_0.numInsts    624711653                       # Number of instructions committed (Count)
system.cpu.exec_context.thread_0.numOps     630001112                       # Number of ops (including micro ops) committed (Count)
system.cpu.exec_context.thread_0.numIntAluAccesses    508188320                       # Number of integer alu accesses (Count)
system.cpu.exec_context.thread_0.numFpAluAccesses      1859077                       # Number of float alu accesses (Count)
system.cpu.exec_context.thread_0.numVecAluAccesses    135844413                       # Number of vector alu accesses (Count)
system.cpu.exec_context.thread_0.numCallsReturns      1006254                       # Number of times a function call or return occured (Count)
system.cpu.exec_context.thread_0.numCondCtrlInsts     75407956                       # Number of instructions that are conditional controls (Count)
system.cpu.exec_context.thread_0.numIntInsts    508188320                       # Number of integer instructions (Count)
system.cpu.exec_context.thread_0.numFpInsts      1859077                       # Number of float instructions (Count)
system.cpu.exec_context.thread_0.numVecInsts    241320310                       # Number of vector instructions (Count)
system.cpu.exec_context.thread_0.numInstsMonitor::(00:0x00014000-0x00014006)    168727493    100.00%    100.00% # Number of instructions being monitored (Count)
system.cpu.exec_context.thread_0.numInstsMonitor::(01:0x00000000-0x00000000)            0      0.00%    100.00% # Number of instructions being monitored (Count)
system.cpu.exec_context.thread_0.numInstsMonitor::(02:0x00000000-0x00000000)            0      0.00%    100.00% # Number of instructions being monitored (Count)
system.cpu.exec_context.thread_0.numInstsMonitor::(03:0x00000000-0x00000000)            0      0.00%    100.00% # Number of instructions being monitored (Count)
system.cpu.exec_context.thread_0.numInstsMonitor::(04:0x00000000-0x00000000)            0      0.00%    100.00% # Number of instructions being monitored (Count)
system.cpu.exec_context.thread_0.numInstsMonitor::(05:0x00000000-0x00000000)            0      0.00%    100.00% # Number of instructions being monitored (Count)
system.cpu.exec_context.thread_0.numInstsMonitor::(06:0x00000000-0x00000000)            0      0.00%    100.00% # Number of instructions being monitored (Count)
system.cpu.exec_context.thread_0.numInstsMonitor::(07:0x00000000-0x00000000)            0      0.00%    100.00% # Number of instructions being monitored (Count)
system.cpu.exec_context.thread_0.numInstsMonitor::(08:0x00000000-0x00000000)            0      0.00%    100.00% # Number of instructions being monitored (Count)
system.cpu.exec_context.thread_0.numInstsMonitor::(09:0x00000000-0x00000000)            0      0.00%    100.00% # Number of instructions being monitored (Count)
system.cpu.exec_context.thread_0.numInstsMonitor::total    168727493                       # Number of instructions being monitored (Count)
system.cpu.exec_context.thread_0.numVecInstsMonitor::(00:0x00014000-0x00014006)    119096077    100.00%    100.00% # Number of vector instructions being monitored (Count)
system.cpu.exec_context.thread_0.numVecInstsMonitor::(01:0x00000000-0x00000000)            0      0.00%    100.00% # Number of vector instructions being monitored (Count)
system.cpu.exec_context.thread_0.numVecInstsMonitor::(02:0x00000000-0x00000000)            0      0.00%    100.00% # Number of vector instructions being monitored (Count)
system.cpu.exec_context.thread_0.numVecInstsMonitor::(03:0x00000000-0x00000000)            0      0.00%    100.00% # Number of vector instructions being monitored (Count)
system.cpu.exec_context.thread_0.numVecInstsMonitor::(04:0x00000000-0x00000000)            0      0.00%    100.00% # Number of vector instructions being monitored (Count)
system.cpu.exec_context.thread_0.numVecInstsMonitor::(05:0x00000000-0x00000000)            0      0.00%    100.00% # Number of vector instructions being monitored (Count)
system.cpu.exec_context.thread_0.numVecInstsMonitor::(06:0x00000000-0x00000000)            0      0.00%    100.00% # Number of vector instructions being monitored (Count)
system.cpu.exec_context.thread_0.numVecInstsMonitor::(07:0x00000000-0x00000000)            0      0.00%    100.00% # Number of vector instructions being monitored (Count)
system.cpu.exec_context.thread_0.numVecInstsMonitor::(08:0x00000000-0x00000000)            0      0.00%    100.00% # Number of vector instructions being monitored (Count)
system.cpu.exec_context.thread_0.numVecInstsMonitor::(09:0x00000000-0x00000000)            0      0.00%    100.00% # Number of vector instructions being monitored (Count)
system.cpu.exec_context.thread_0.numVecInstsMonitor::total    119096077                       # Number of vector instructions being monitored (Count)
system.cpu.exec_context.thread_0.numIntRegReads    824792649                       # Number of times the integer registers were read (Count)
system.cpu.exec_context.thread_0.numIntRegWrites    362301865                       # Number of times the integer registers were written (Count)
system.cpu.exec_context.thread_0.numFpRegReads      2312623                       # Number of times the floating registers were read (Count)
system.cpu.exec_context.thread_0.numFpRegWrites      1134225                       # Number of times the floating registers were written (Count)
system.cpu.exec_context.thread_0.numVecRegReads    209054344                       # Number of times the vector registers were read (Count)
system.cpu.exec_context.thread_0.numVecRegWrites    185404640                       # Number of times the vector registers were written (Count)
system.cpu.exec_context.thread_0.numVecPredRegReads            0                       # Number of times the predicate registers were read (Count)
system.cpu.exec_context.thread_0.numVecPredRegWrites            0                       # Number of times the predicate registers were written (Count)
system.cpu.exec_context.thread_0.numMiscRegReads    385544952                       # Number of times the Misc registers were read (Count)
system.cpu.exec_context.thread_0.numMiscRegWrites     76180465                       # Number of times the Misc registers were written (Count)
system.cpu.exec_context.thread_0.numMemRefs    172867332                       # Number of memory refs (Count)
system.cpu.exec_context.thread_0.numLoadInsts    112675310                       # Number of load instructions (Count)
system.cpu.exec_context.thread_0.numStoreInsts     60192022                       # Number of store instructions (Count)
system.cpu.exec_context.thread_0.numIdleCycles     0.332345                       # Number of idle cycles (Cycle)
system.cpu.exec_context.thread_0.numBusyCycles 765739876.667655                       # Number of busy cycles (Cycle)
system.cpu.exec_context.thread_0.notIdleFraction     1.000000                       # Percentage of non-idle cycles (Ratio)
system.cpu.exec_context.thread_0.idleFraction     0.000000                       # Percentage of idle cycles (Ratio)
system.cpu.exec_context.thread_0.numBranches     81914778                       # Number of branches fetched (Count)
system.cpu.exec_context.thread_0.statExecutedInstType::No_OpClass       391926      0.05%      0.05% # Class of executed instruction. (Count)
system.cpu.exec_context.thread_0.statExecutedInstType::IntAlu    356691804     48.50%     48.55% # Class of executed instruction. (Count)
system.cpu.exec_context.thread_0.statExecutedInstType::IntMult      8036787      1.09%     49.64% # Class of executed instruction. (Count)
system.cpu.exec_context.thread_0.statExecutedInstType::IntDiv        12700      0.00%     49.64% # Class of executed instruction. (Count)
system.cpu.exec_context.thread_0.statExecutedInstType::FloatAdd       152128      0.02%     49.67% # Class of executed instruction. (Count)
system.cpu.exec_context.thread_0.statExecutedInstType::FloatCmp       390960      0.05%     49.72% # Class of executed instruction. (Count)
system.cpu.exec_context.thread_0.statExecutedInstType::FloatCvt       377910      0.05%     49.77% # Class of executed instruction. (Count)
system.cpu.exec_context.thread_0.statExecutedInstType::FloatMult        83775      0.01%     49.78% # Class of executed instruction. (Count)
system.cpu.exec_context.thread_0.statExecutedInstType::FloatMultAcc          448      0.00%     49.78% # Class of executed instruction. (Count)
system.cpu.exec_context.thread_0.statExecutedInstType::FloatDiv       206134      0.03%     49.81% # Class of executed instruction. (Count)
system.cpu.exec_context.thread_0.statExecutedInstType::FloatMisc       142224      0.02%     49.83% # Class of executed instruction. (Count)
system.cpu.exec_context.thread_0.statExecutedInstType::FloatSqrt            0      0.00%     49.83% # Class of executed instruction. (Count)
system.cpu.exec_context.thread_0.statExecutedInstType::SimdAdd            0      0.00%     49.83% # Class of executed instruction. (Count)
system.cpu.exec_context.thread_0.statExecutedInstType::SimdAddAcc            0      0.00%     49.83% # Class of executed instruction. (Count)
system.cpu.exec_context.thread_0.statExecutedInstType::SimdAlu            0      0.00%     49.83% # Class of executed instruction. (Count)
system.cpu.exec_context.thread_0.statExecutedInstType::SimdCmp            0      0.00%     49.83% # Class of executed instruction. (Count)
system.cpu.exec_context.thread_0.statExecutedInstType::SimdCvt            0      0.00%     49.83% # Class of executed instruction. (Count)
system.cpu.exec_context.thread_0.statExecutedInstType::SimdMisc            0      0.00%     49.83% # Class of executed instruction. (Count)
system.cpu.exec_context.thread_0.statExecutedInstType::SimdMult            0      0.00%     49.83% # Class of executed instruction. (Count)
system.cpu.exec_context.thread_0.statExecutedInstType::SimdMultAcc            0      0.00%     49.83% # Class of executed instruction. (Count)
system.cpu.exec_context.thread_0.statExecutedInstType::SimdShift            0      0.00%     49.83% # Class of executed instruction. (Count)
system.cpu.exec_context.thread_0.statExecutedInstType::SimdShiftAcc            0      0.00%     49.83% # Class of executed instruction. (Count)
system.cpu.exec_context.thread_0.statExecutedInstType::SimdDiv            0      0.00%     49.83% # Class of executed instruction. (Count)
system.cpu.exec_context.thread_0.statExecutedInstType::SimdSqrt            0      0.00%     49.83% # Class of executed instruction. (Count)
system.cpu.exec_context.thread_0.statExecutedInstType::SimdFloatAdd            0      0.00%     49.83% # Class of executed instruction. (Count)
system.cpu.exec_context.thread_0.statExecutedInstType::SimdFloatAlu            0      0.00%     49.83% # Class of executed instruction. (Count)
system.cpu.exec_context.thread_0.statExecutedInstType::SimdFloatCmp            0      0.00%     49.83% # Class of executed instruction. (Count)
system.cpu.exec_context.thread_0.statExecutedInstType::SimdFloatCvt            0      0.00%     49.83% # Class of executed instruction. (Count)
system.cpu.exec_context.thread_0.statExecutedInstType::SimdFloatDiv            0      0.00%     49.83% # Class of executed instruction. (Count)
system.cpu.exec_context.thread_0.statExecutedInstType::SimdFloatMisc            0      0.00%     49.83% # Class of executed instruction. (Count)
system.cpu.exec_context.thread_0.statExecutedInstType::SimdFloatMult            0      0.00%     49.83% # Class of executed instruction. (Count)
system.cpu.exec_context.thread_0.statExecutedInstType::SimdFloatMultAcc            0      0.00%     49.83% # Class of executed instruction. (Count)
system.cpu.exec_context.thread_0.statExecutedInstType::SimdFloatSqrt            0      0.00%     49.83% # Class of executed instruction. (Count)
system.cpu.exec_context.thread_0.statExecutedInstType::SimdReduceAdd            0      0.00%     49.83% # Class of executed instruction. (Count)
system.cpu.exec_context.thread_0.statExecutedInstType::SimdReduceAlu            0      0.00%     49.83% # Class of executed instruction. (Count)
system.cpu.exec_context.thread_0.statExecutedInstType::SimdReduceCmp            0      0.00%     49.83% # Class of executed instruction. (Count)
system.cpu.exec_context.thread_0.statExecutedInstType::SimdFloatReduceAdd            0      0.00%     49.83% # Class of executed instruction. (Count)
system.cpu.exec_context.thread_0.statExecutedInstType::SimdFloatReduceCmp            0      0.00%     49.83% # Class of executed instruction. (Count)
system.cpu.exec_context.thread_0.statExecutedInstType::SimdAes            0      0.00%     49.83% # Class of executed instruction. (Count)
system.cpu.exec_context.thread_0.statExecutedInstType::SimdAesMix            0      0.00%     49.83% # Class of executed instruction. (Count)
system.cpu.exec_context.thread_0.statExecutedInstType::SimdSha1Hash            0      0.00%     49.83% # Class of executed instruction. (Count)
system.cpu.exec_context.thread_0.statExecutedInstType::SimdSha1Hash2            0      0.00%     49.83% # Class of executed instruction. (Count)
system.cpu.exec_context.thread_0.statExecutedInstType::SimdSha256Hash            0      0.00%     49.83% # Class of executed instruction. (Count)
system.cpu.exec_context.thread_0.statExecutedInstType::SimdSha256Hash2            0      0.00%     49.83% # Class of executed instruction. (Count)
system.cpu.exec_context.thread_0.statExecutedInstType::SimdShaSigma2            0      0.00%     49.83% # Class of executed instruction. (Count)
system.cpu.exec_context.thread_0.statExecutedInstType::SimdShaSigma3            0      0.00%     49.83% # Class of executed instruction. (Count)
system.cpu.exec_context.thread_0.statExecutedInstType::SimdPredAlu            0      0.00%     49.83% # Class of executed instruction. (Count)
system.cpu.exec_context.thread_0.statExecutedInstType::MemRead     67536263      9.18%     59.01% # Class of executed instruction. (Count)
system.cpu.exec_context.thread_0.statExecutedInstType::MemWrite     54371330      7.39%     66.40% # Class of executed instruction. (Count)
system.cpu.exec_context.thread_0.statExecutedInstType::FloatMemRead       257709      0.04%     66.44% # Class of executed instruction. (Count)
system.cpu.exec_context.thread_0.statExecutedInstType::FloatMemWrite       238189      0.03%     66.47% # Class of executed instruction. (Count)
system.cpu.exec_context.thread_0.statExecutedInstType::IprAccess            0      0.00%     66.47% # Class of executed instruction. (Count)
system.cpu.exec_context.thread_0.statExecutedInstType::InstPrefetch            0      0.00%     66.47% # Class of executed instruction. (Count)
system.cpu.exec_context.thread_0.statExecutedInstType::VectorIndexedMemLoad            0      0.00%     66.47% # Class of executed instruction. (Count)
system.cpu.exec_context.thread_0.statExecutedInstType::VectorIndexedMemStore            0      0.00%     66.47% # Class of executed instruction. (Count)
system.cpu.exec_context.thread_0.statExecutedInstType::VectorStridedMemLoad            0      0.00%     66.47% # Class of executed instruction. (Count)
system.cpu.exec_context.thread_0.statExecutedInstType::VectorStridedMemStore            0      0.00%     66.47% # Class of executed instruction. (Count)
system.cpu.exec_context.thread_0.statExecutedInstType::VectorUnitStrideMemLoad     88860170     12.08%     78.55% # Class of executed instruction. (Count)
system.cpu.exec_context.thread_0.statExecutedInstType::VectorUnitStrideMemStore      8836176      1.20%     79.75% # Class of executed instruction. (Count)
system.cpu.exec_context.thread_0.statExecutedInstType::VectorOPIVI            0      0.00%     79.75% # Class of executed instruction. (Count)
system.cpu.exec_context.thread_0.statExecutedInstType::VectorOPIVISL       845808      0.11%     79.87% # Class of executed instruction. (Count)
system.cpu.exec_context.thread_0.statExecutedInstType::VectorVdVs2Rs1     33939140      4.61%     84.48% # Class of executed instruction. (Count)
system.cpu.exec_context.thread_0.statExecutedInstType::VectorVdVs2Rs1SL            0      0.00%     84.48% # Class of executed instruction. (Count)
system.cpu.exec_context.thread_0.statExecutedInstType::VectorVdVs2Fs1        76800      0.01%     84.49% # Class of executed instruction. (Count)
system.cpu.exec_context.thread_0.statExecutedInstType::VectorWideningVdVs2            0      0.00%     84.49% # Class of executed instruction. (Count)
system.cpu.exec_context.thread_0.statExecutedInstType::VectorNarrowingVV            0      0.00%     84.49% # Class of executed instruction. (Count)
system.cpu.exec_context.thread_0.statExecutedInstType::VectorNarrowingVI            0      0.00%     84.49% # Class of executed instruction. (Count)
system.cpu.exec_context.thread_0.statExecutedInstType::VectorNarrowingWX     13011408      1.77%     86.26% # Class of executed instruction. (Count)
system.cpu.exec_context.thread_0.statExecutedInstType::VectorWideningVX            0      0.00%     86.26% # Class of executed instruction. (Count)
system.cpu.exec_context.thread_0.statExecutedInstType::VectorWideningWV        11008      0.00%     86.26% # Class of executed instruction. (Count)
system.cpu.exec_context.thread_0.statExecutedInstType::VectorWideningVV      2426368      0.33%     86.59% # Class of executed instruction. (Count)
system.cpu.exec_context.thread_0.statExecutedInstType::VectorVdVs2Vs1Op     14170856      1.93%     88.52% # Class of executed instruction. (Count)
system.cpu.exec_context.thread_0.statExecutedInstType::VectorAIVs1Vs2Vd     45154368      6.14%     94.66% # Class of executed instruction. (Count)
system.cpu.exec_context.thread_0.statExecutedInstType::VectorAINVs1Vs2Vd     17547264      2.39%     97.05% # Class of executed instruction. (Count)
system.cpu.exec_context.thread_0.statExecutedInstType::VectorAINLhVs1Vs2Vd            0      0.00%     97.05% # Class of executed instruction. (Count)
system.cpu.exec_context.thread_0.statExecutedInstType::VectorAILhVs1Vs2Vd            0      0.00%     97.05% # Class of executed instruction. (Count)
system.cpu.exec_context.thread_0.statExecutedInstType::VectorVRXUNARY0            0      0.00%     97.05% # Class of executed instruction. (Count)
system.cpu.exec_context.thread_0.statExecutedInstType::VectorVRFUNARY0            0      0.00%     97.05% # Class of executed instruction. (Count)
system.cpu.exec_context.thread_0.statExecutedInstType::VectorVWFUNARY0            0      0.00%     97.05% # Class of executed instruction. (Count)
system.cpu.exec_context.thread_0.statExecutedInstType::VectorVFUNARY0      7233136      0.98%     98.03% # Class of executed instruction. (Count)
system.cpu.exec_context.thread_0.statExecutedInstType::VectorVWXUNARY0            0      0.00%     98.03% # Class of executed instruction. (Count)
system.cpu.exec_context.thread_0.statExecutedInstType::VectorVMUNARY0            0      0.00%     98.03% # Class of executed instruction. (Count)
system.cpu.exec_context.thread_0.statExecutedInstType::VectorIntegerExtension      9207808      1.25%     99.28% # Class of executed instruction. (Count)
system.cpu.exec_context.thread_0.statExecutedInstType::VectorMaskRegisterVdVs2Vs1            0      0.00%     99.28% # Class of executed instruction. (Count)
system.cpu.exec_context.thread_0.statExecutedInstType::VectorMaskRegisterVdVs2            0      0.00%     99.28% # Class of executed instruction. (Count)
system.cpu.exec_context.thread_0.statExecutedInstType::VectorWholeRegisterMove            0      0.00%     99.28% # Class of executed instruction. (Count)
system.cpu.exec_context.thread_0.statExecutedInstType::VectorCfg      5287850      0.72%    100.00% # Class of executed instruction. (Count)
system.cpu.exec_context.thread_0.statExecutedInstType::total    735498447                       # Class of executed instruction. (Count)
system.cpu.exec_context.thread_0.statExecutedInstTypeMonitor::(00:0x00014000-0x00014006)No_OpClass            0      0.00%      0.00% # Class of executed instruction being monitored (Count)
system.cpu.exec_context.thread_0.statExecutedInstTypeMonitor::(00:0x00014000-0x00014006)IntAlu     40288613     23.88%     23.88% # Class of executed instruction being monitored (Count)
system.cpu.exec_context.thread_0.statExecutedInstTypeMonitor::(00:0x00014000-0x00014006)IntMult       684854      0.41%     24.28% # Class of executed instruction being monitored (Count)
system.cpu.exec_context.thread_0.statExecutedInstTypeMonitor::(00:0x00014000-0x00014006)IntDiv            0      0.00%     24.28% # Class of executed instruction being monitored (Count)
system.cpu.exec_context.thread_0.statExecutedInstTypeMonitor::(00:0x00014000-0x00014006)FloatAdd            0      0.00%     24.28% # Class of executed instruction being monitored (Count)
system.cpu.exec_context.thread_0.statExecutedInstTypeMonitor::(00:0x00014000-0x00014006)FloatCmp            0      0.00%     24.28% # Class of executed instruction being monitored (Count)
system.cpu.exec_context.thread_0.statExecutedInstTypeMonitor::(00:0x00014000-0x00014006)FloatCvt            0      0.00%     24.28% # Class of executed instruction being monitored (Count)
system.cpu.exec_context.thread_0.statExecutedInstTypeMonitor::(00:0x00014000-0x00014006)FloatMult            0      0.00%     24.28% # Class of executed instruction being monitored (Count)
system.cpu.exec_context.thread_0.statExecutedInstTypeMonitor::(00:0x00014000-0x00014006)FloatMultAcc            0      0.00%     24.28% # Class of executed instruction being monitored (Count)
system.cpu.exec_context.thread_0.statExecutedInstTypeMonitor::(00:0x00014000-0x00014006)FloatDiv            0      0.00%     24.28% # Class of executed instruction being monitored (Count)
system.cpu.exec_context.thread_0.statExecutedInstTypeMonitor::(00:0x00014000-0x00014006)FloatMisc            0      0.00%     24.28% # Class of executed instruction being monitored (Count)
system.cpu.exec_context.thread_0.statExecutedInstTypeMonitor::(00:0x00014000-0x00014006)FloatSqrt            0      0.00%     24.28% # Class of executed instruction being monitored (Count)
system.cpu.exec_context.thread_0.statExecutedInstTypeMonitor::(00:0x00014000-0x00014006)SimdAdd            0      0.00%     24.28% # Class of executed instruction being monitored (Count)
system.cpu.exec_context.thread_0.statExecutedInstTypeMonitor::(00:0x00014000-0x00014006)SimdAddAcc            0      0.00%     24.28% # Class of executed instruction being monitored (Count)
system.cpu.exec_context.thread_0.statExecutedInstTypeMonitor::(00:0x00014000-0x00014006)SimdAlu            0      0.00%     24.28% # Class of executed instruction being monitored (Count)
system.cpu.exec_context.thread_0.statExecutedInstTypeMonitor::(00:0x00014000-0x00014006)SimdCmp            0      0.00%     24.28% # Class of executed instruction being monitored (Count)
system.cpu.exec_context.thread_0.statExecutedInstTypeMonitor::(00:0x00014000-0x00014006)SimdCvt            0      0.00%     24.28% # Class of executed instruction being monitored (Count)
system.cpu.exec_context.thread_0.statExecutedInstTypeMonitor::(00:0x00014000-0x00014006)SimdMisc            0      0.00%     24.28% # Class of executed instruction being monitored (Count)
system.cpu.exec_context.thread_0.statExecutedInstTypeMonitor::(00:0x00014000-0x00014006)SimdMult            0      0.00%     24.28% # Class of executed instruction being monitored (Count)
system.cpu.exec_context.thread_0.statExecutedInstTypeMonitor::(00:0x00014000-0x00014006)SimdMultAcc            0      0.00%     24.28% # Class of executed instruction being monitored (Count)
system.cpu.exec_context.thread_0.statExecutedInstTypeMonitor::(00:0x00014000-0x00014006)SimdShift            0      0.00%     24.28% # Class of executed instruction being monitored (Count)
system.cpu.exec_context.thread_0.statExecutedInstTypeMonitor::(00:0x00014000-0x00014006)SimdShiftAcc            0      0.00%     24.28% # Class of executed instruction being monitored (Count)
system.cpu.exec_context.thread_0.statExecutedInstTypeMonitor::(00:0x00014000-0x00014006)SimdDiv            0      0.00%     24.28% # Class of executed instruction being monitored (Count)
system.cpu.exec_context.thread_0.statExecutedInstTypeMonitor::(00:0x00014000-0x00014006)SimdSqrt            0      0.00%     24.28% # Class of executed instruction being monitored (Count)
system.cpu.exec_context.thread_0.statExecutedInstTypeMonitor::(00:0x00014000-0x00014006)SimdFloatAdd            0      0.00%     24.28% # Class of executed instruction being monitored (Count)
system.cpu.exec_context.thread_0.statExecutedInstTypeMonitor::(00:0x00014000-0x00014006)SimdFloatAlu            0      0.00%     24.28% # Class of executed instruction being monitored (Count)
system.cpu.exec_context.thread_0.statExecutedInstTypeMonitor::(00:0x00014000-0x00014006)SimdFloatCmp            0      0.00%     24.28% # Class of executed instruction being monitored (Count)
system.cpu.exec_context.thread_0.statExecutedInstTypeMonitor::(00:0x00014000-0x00014006)SimdFloatCvt            0      0.00%     24.28% # Class of executed instruction being monitored (Count)
system.cpu.exec_context.thread_0.statExecutedInstTypeMonitor::(00:0x00014000-0x00014006)SimdFloatDiv            0      0.00%     24.28% # Class of executed instruction being monitored (Count)
system.cpu.exec_context.thread_0.statExecutedInstTypeMonitor::(00:0x00014000-0x00014006)SimdFloatMisc            0      0.00%     24.28% # Class of executed instruction being monitored (Count)
system.cpu.exec_context.thread_0.statExecutedInstTypeMonitor::(00:0x00014000-0x00014006)SimdFloatMult            0      0.00%     24.28% # Class of executed instruction being monitored (Count)
system.cpu.exec_context.thread_0.statExecutedInstTypeMonitor::(00:0x00014000-0x00014006)SimdFloatMultAcc            0      0.00%     24.28% # Class of executed instruction being monitored (Count)
system.cpu.exec_context.thread_0.statExecutedInstTypeMonitor::(00:0x00014000-0x00014006)SimdFloatSqrt            0      0.00%     24.28% # Class of executed instruction being monitored (Count)
system.cpu.exec_context.thread_0.statExecutedInstTypeMonitor::(00:0x00014000-0x00014006)SimdReduceAdd            0      0.00%     24.28% # Class of executed instruction being monitored (Count)
system.cpu.exec_context.thread_0.statExecutedInstTypeMonitor::(00:0x00014000-0x00014006)SimdReduceAlu            0      0.00%     24.28% # Class of executed instruction being monitored (Count)
system.cpu.exec_context.thread_0.statExecutedInstTypeMonitor::(00:0x00014000-0x00014006)SimdReduceCmp            0      0.00%     24.28% # Class of executed instruction being monitored (Count)
system.cpu.exec_context.thread_0.statExecutedInstTypeMonitor::(00:0x00014000-0x00014006)SimdFloatReduceAdd            0      0.00%     24.28% # Class of executed instruction being monitored (Count)
system.cpu.exec_context.thread_0.statExecutedInstTypeMonitor::(00:0x00014000-0x00014006)SimdFloatReduceCmp            0      0.00%     24.28% # Class of executed instruction being monitored (Count)
system.cpu.exec_context.thread_0.statExecutedInstTypeMonitor::(00:0x00014000-0x00014006)SimdAes            0      0.00%     24.28% # Class of executed instruction being monitored (Count)
system.cpu.exec_context.thread_0.statExecutedInstTypeMonitor::(00:0x00014000-0x00014006)SimdAesMix            0      0.00%     24.28% # Class of executed instruction being monitored (Count)
system.cpu.exec_context.thread_0.statExecutedInstTypeMonitor::(00:0x00014000-0x00014006)SimdSha1Hash            0      0.00%     24.28% # Class of executed instruction being monitored (Count)
system.cpu.exec_context.thread_0.statExecutedInstTypeMonitor::(00:0x00014000-0x00014006)SimdSha1Hash2            0      0.00%     24.28% # Class of executed instruction being monitored (Count)
system.cpu.exec_context.thread_0.statExecutedInstTypeMonitor::(00:0x00014000-0x00014006)SimdSha256Hash            0      0.00%     24.28% # Class of executed instruction being monitored (Count)
system.cpu.exec_context.thread_0.statExecutedInstTypeMonitor::(00:0x00014000-0x00014006)SimdSha256Hash2            0      0.00%     24.28% # Class of executed instruction being monitored (Count)
system.cpu.exec_context.thread_0.statExecutedInstTypeMonitor::(00:0x00014000-0x00014006)SimdShaSigma2            0      0.00%     24.28% # Class of executed instruction being monitored (Count)
system.cpu.exec_context.thread_0.statExecutedInstTypeMonitor::(00:0x00014000-0x00014006)SimdShaSigma3            0      0.00%     24.28% # Class of executed instruction being monitored (Count)
system.cpu.exec_context.thread_0.statExecutedInstTypeMonitor::(00:0x00014000-0x00014006)SimdPredAlu            0      0.00%     24.28% # Class of executed instruction being monitored (Count)
system.cpu.exec_context.thread_0.statExecutedInstTypeMonitor::(00:0x00014000-0x00014006)MemRead      4967074      2.94%     27.23% # Class of executed instruction being monitored (Count)
system.cpu.exec_context.thread_0.statExecutedInstTypeMonitor::(00:0x00014000-0x00014006)MemWrite      1046926      0.62%     27.85% # Class of executed instruction being monitored (Count)
system.cpu.exec_context.thread_0.statExecutedInstTypeMonitor::(00:0x00014000-0x00014006)FloatMemRead           15      0.00%     27.85% # Class of executed instruction being monitored (Count)
system.cpu.exec_context.thread_0.statExecutedInstTypeMonitor::(00:0x00014000-0x00014006)FloatMemWrite            9      0.00%     27.85% # Class of executed instruction being monitored (Count)
system.cpu.exec_context.thread_0.statExecutedInstTypeMonitor::(00:0x00014000-0x00014006)IprAccess            0      0.00%     27.85% # Class of executed instruction being monitored (Count)
system.cpu.exec_context.thread_0.statExecutedInstTypeMonitor::(00:0x00014000-0x00014006)InstPrefetch            0      0.00%     27.85% # Class of executed instruction being monitored (Count)
system.cpu.exec_context.thread_0.statExecutedInstTypeMonitor::(00:0x00014000-0x00014006)VectorIndexedMemLoad            0      0.00%     27.85% # Class of executed instruction being monitored (Count)
system.cpu.exec_context.thread_0.statExecutedInstTypeMonitor::(00:0x00014000-0x00014006)VectorIndexedMemStore            0      0.00%     27.85% # Class of executed instruction being monitored (Count)
system.cpu.exec_context.thread_0.statExecutedInstTypeMonitor::(00:0x00014000-0x00014006)VectorStridedMemLoad            0      0.00%     27.85% # Class of executed instruction being monitored (Count)
system.cpu.exec_context.thread_0.statExecutedInstTypeMonitor::(00:0x00014000-0x00014006)VectorStridedMemStore            0      0.00%     27.85% # Class of executed instruction being monitored (Count)
system.cpu.exec_context.thread_0.statExecutedInstTypeMonitor::(00:0x00014000-0x00014006)VectorUnitStrideMemLoad     43651528     25.87%     53.72% # Class of executed instruction being monitored (Count)
system.cpu.exec_context.thread_0.statExecutedInstTypeMonitor::(00:0x00014000-0x00014006)VectorUnitStrideMemStore      3632567      2.15%     55.87% # Class of executed instruction being monitored (Count)
system.cpu.exec_context.thread_0.statExecutedInstTypeMonitor::(00:0x00014000-0x00014006)VectorOPIVI            0      0.00%     55.87% # Class of executed instruction being monitored (Count)
system.cpu.exec_context.thread_0.statExecutedInstTypeMonitor::(00:0x00014000-0x00014006)VectorOPIVISL       422904      0.25%     56.12% # Class of executed instruction being monitored (Count)
system.cpu.exec_context.thread_0.statExecutedInstTypeMonitor::(00:0x00014000-0x00014006)VectorVdVs2Rs1     16969570     10.06%     66.18% # Class of executed instruction being monitored (Count)
system.cpu.exec_context.thread_0.statExecutedInstTypeMonitor::(00:0x00014000-0x00014006)VectorVdVs2Rs1SL            0      0.00%     66.18% # Class of executed instruction being monitored (Count)
system.cpu.exec_context.thread_0.statExecutedInstTypeMonitor::(00:0x00014000-0x00014006)VectorVdVs2Fs1        38400      0.02%     66.20% # Class of executed instruction being monitored (Count)
system.cpu.exec_context.thread_0.statExecutedInstTypeMonitor::(00:0x00014000-0x00014006)VectorWideningVdVs2            0      0.00%     66.20% # Class of executed instruction being monitored (Count)
system.cpu.exec_context.thread_0.statExecutedInstTypeMonitor::(00:0x00014000-0x00014006)VectorNarrowingVV            0      0.00%     66.20% # Class of executed instruction being monitored (Count)
system.cpu.exec_context.thread_0.statExecutedInstTypeMonitor::(00:0x00014000-0x00014006)VectorNarrowingVI            0      0.00%     66.20% # Class of executed instruction being monitored (Count)
system.cpu.exec_context.thread_0.statExecutedInstTypeMonitor::(00:0x00014000-0x00014006)VectorNarrowingWX      6505704      3.86%     70.06% # Class of executed instruction being monitored (Count)
system.cpu.exec_context.thread_0.statExecutedInstTypeMonitor::(00:0x00014000-0x00014006)VectorWideningVX            0      0.00%     70.06% # Class of executed instruction being monitored (Count)
system.cpu.exec_context.thread_0.statExecutedInstTypeMonitor::(00:0x00014000-0x00014006)VectorWideningWV         5504      0.00%     70.06% # Class of executed instruction being monitored (Count)
system.cpu.exec_context.thread_0.statExecutedInstTypeMonitor::(00:0x00014000-0x00014006)VectorWideningVV      1213184      0.72%     70.78% # Class of executed instruction being monitored (Count)
system.cpu.exec_context.thread_0.statExecutedInstTypeMonitor::(00:0x00014000-0x00014006)VectorVdVs2Vs1Op      7085428      4.20%     74.98% # Class of executed instruction being monitored (Count)
system.cpu.exec_context.thread_0.statExecutedInstTypeMonitor::(00:0x00014000-0x00014006)VectorAIVs1Vs2Vd     22577184     13.38%     88.36% # Class of executed instruction being monitored (Count)
system.cpu.exec_context.thread_0.statExecutedInstTypeMonitor::(00:0x00014000-0x00014006)VectorAINVs1Vs2Vd      8773632      5.20%     93.56% # Class of executed instruction being monitored (Count)
system.cpu.exec_context.thread_0.statExecutedInstTypeMonitor::(00:0x00014000-0x00014006)VectorAINLhVs1Vs2Vd            0      0.00%     93.56% # Class of executed instruction being monitored (Count)
system.cpu.exec_context.thread_0.statExecutedInstTypeMonitor::(00:0x00014000-0x00014006)VectorAILhVs1Vs2Vd            0      0.00%     93.56% # Class of executed instruction being monitored (Count)
system.cpu.exec_context.thread_0.statExecutedInstTypeMonitor::(00:0x00014000-0x00014006)VectorVRXUNARY0            0      0.00%     93.56% # Class of executed instruction being monitored (Count)
system.cpu.exec_context.thread_0.statExecutedInstTypeMonitor::(00:0x00014000-0x00014006)VectorVRFUNARY0            0      0.00%     93.56% # Class of executed instruction being monitored (Count)
system.cpu.exec_context.thread_0.statExecutedInstTypeMonitor::(00:0x00014000-0x00014006)VectorVWFUNARY0            0      0.00%     93.56% # Class of executed instruction being monitored (Count)
system.cpu.exec_context.thread_0.statExecutedInstTypeMonitor::(00:0x00014000-0x00014006)VectorVFUNARY0      3616568      2.14%     95.70% # Class of executed instruction being monitored (Count)
system.cpu.exec_context.thread_0.statExecutedInstTypeMonitor::(00:0x00014000-0x00014006)VectorVWXUNARY0            0      0.00%     95.70% # Class of executed instruction being monitored (Count)
system.cpu.exec_context.thread_0.statExecutedInstTypeMonitor::(00:0x00014000-0x00014006)VectorVMUNARY0            0      0.00%     95.70% # Class of executed instruction being monitored (Count)
system.cpu.exec_context.thread_0.statExecutedInstTypeMonitor::(00:0x00014000-0x00014006)VectorIntegerExtension      4603904      2.73%     98.43% # Class of executed instruction being monitored (Count)
system.cpu.exec_context.thread_0.statExecutedInstTypeMonitor::(00:0x00014000-0x00014006)VectorMaskRegisterVdVs2Vs1            0      0.00%     98.43% # Class of executed instruction being monitored (Count)
system.cpu.exec_context.thread_0.statExecutedInstTypeMonitor::(00:0x00014000-0x00014006)VectorMaskRegisterVdVs2            0      0.00%     98.43% # Class of executed instruction being monitored (Count)
system.cpu.exec_context.thread_0.statExecutedInstTypeMonitor::(00:0x00014000-0x00014006)VectorWholeRegisterMove            0      0.00%     98.43% # Class of executed instruction being monitored (Count)
system.cpu.exec_context.thread_0.statExecutedInstTypeMonitor::(00:0x00014000-0x00014006)VectorCfg      2643925      1.57%    100.00% # Class of executed instruction being monitored (Count)
system.cpu.exec_context.thread_0.statExecutedInstTypeMonitor::(01:0x00000000-0x00000000)No_OpClass            0      0.00%    100.00% # Class of executed instruction being monitored (Count)
system.cpu.exec_context.thread_0.statExecutedInstTypeMonitor::(01:0x00000000-0x00000000)IntAlu            0      0.00%    100.00% # Class of executed instruction being monitored (Count)
system.cpu.exec_context.thread_0.statExecutedInstTypeMonitor::(01:0x00000000-0x00000000)IntMult            0      0.00%    100.00% # Class of executed instruction being monitored (Count)
system.cpu.exec_context.thread_0.statExecutedInstTypeMonitor::(01:0x00000000-0x00000000)IntDiv            0      0.00%    100.00% # Class of executed instruction being monitored (Count)
system.cpu.exec_context.thread_0.statExecutedInstTypeMonitor::(01:0x00000000-0x00000000)FloatAdd            0      0.00%    100.00% # Class of executed instruction being monitored (Count)
system.cpu.exec_context.thread_0.statExecutedInstTypeMonitor::(01:0x00000000-0x00000000)FloatCmp            0      0.00%    100.00% # Class of executed instruction being monitored (Count)
system.cpu.exec_context.thread_0.statExecutedInstTypeMonitor::(01:0x00000000-0x00000000)FloatCvt            0      0.00%    100.00% # Class of executed instruction being monitored (Count)
system.cpu.exec_context.thread_0.statExecutedInstTypeMonitor::(01:0x00000000-0x00000000)FloatMult            0      0.00%    100.00% # Class of executed instruction being monitored (Count)
system.cpu.exec_context.thread_0.statExecutedInstTypeMonitor::(01:0x00000000-0x00000000)FloatMultAcc            0      0.00%    100.00% # Class of executed instruction being monitored (Count)
system.cpu.exec_context.thread_0.statExecutedInstTypeMonitor::(01:0x00000000-0x00000000)FloatDiv            0      0.00%    100.00% # Class of executed instruction being monitored (Count)
system.cpu.exec_context.thread_0.statExecutedInstTypeMonitor::(01:0x00000000-0x00000000)FloatMisc            0      0.00%    100.00% # Class of executed instruction being monitored (Count)
system.cpu.exec_context.thread_0.statExecutedInstTypeMonitor::(01:0x00000000-0x00000000)FloatSqrt            0      0.00%    100.00% # Class of executed instruction being monitored (Count)
system.cpu.exec_context.thread_0.statExecutedInstTypeMonitor::(01:0x00000000-0x00000000)SimdAdd            0      0.00%    100.00% # Class of executed instruction being monitored (Count)
system.cpu.exec_context.thread_0.statExecutedInstTypeMonitor::(01:0x00000000-0x00000000)SimdAddAcc            0      0.00%    100.00% # Class of executed instruction being monitored (Count)
system.cpu.exec_context.thread_0.statExecutedInstTypeMonitor::(01:0x00000000-0x00000000)SimdAlu            0      0.00%    100.00% # Class of executed instruction being monitored (Count)
system.cpu.exec_context.thread_0.statExecutedInstTypeMonitor::(01:0x00000000-0x00000000)SimdCmp            0      0.00%    100.00% # Class of executed instruction being monitored (Count)
system.cpu.exec_context.thread_0.statExecutedInstTypeMonitor::(01:0x00000000-0x00000000)SimdCvt            0      0.00%    100.00% # Class of executed instruction being monitored (Count)
system.cpu.exec_context.thread_0.statExecutedInstTypeMonitor::(01:0x00000000-0x00000000)SimdMisc            0      0.00%    100.00% # Class of executed instruction being monitored (Count)
system.cpu.exec_context.thread_0.statExecutedInstTypeMonitor::(01:0x00000000-0x00000000)SimdMult            0      0.00%    100.00% # Class of executed instruction being monitored (Count)
system.cpu.exec_context.thread_0.statExecutedInstTypeMonitor::(01:0x00000000-0x00000000)SimdMultAcc            0      0.00%    100.00% # Class of executed instruction being monitored (Count)
system.cpu.exec_context.thread_0.statExecutedInstTypeMonitor::(01:0x00000000-0x00000000)SimdShift            0      0.00%    100.00% # Class of executed instruction being monitored (Count)
system.cpu.exec_context.thread_0.statExecutedInstTypeMonitor::(01:0x00000000-0x00000000)SimdShiftAcc            0      0.00%    100.00% # Class of executed instruction being monitored (Count)
system.cpu.exec_context.thread_0.statExecutedInstTypeMonitor::(01:0x00000000-0x00000000)SimdDiv            0      0.00%    100.00% # Class of executed instruction being monitored (Count)
system.cpu.exec_context.thread_0.statExecutedInstTypeMonitor::(01:0x00000000-0x00000000)SimdSqrt            0      0.00%    100.00% # Class of executed instruction being monitored (Count)
system.cpu.exec_context.thread_0.statExecutedInstTypeMonitor::(01:0x00000000-0x00000000)SimdFloatAdd            0      0.00%    100.00% # Class of executed instruction being monitored (Count)
system.cpu.exec_context.thread_0.statExecutedInstTypeMonitor::(01:0x00000000-0x00000000)SimdFloatAlu            0      0.00%    100.00% # Class of executed instruction being monitored (Count)
system.cpu.exec_context.thread_0.statExecutedInstTypeMonitor::(01:0x00000000-0x00000000)SimdFloatCmp            0      0.00%    100.00% # Class of executed instruction being monitored (Count)
system.cpu.exec_context.thread_0.statExecutedInstTypeMonitor::(01:0x00000000-0x00000000)SimdFloatCvt            0      0.00%    100.00% # Class of executed instruction being monitored (Count)
system.cpu.exec_context.thread_0.statExecutedInstTypeMonitor::(01:0x00000000-0x00000000)SimdFloatDiv            0      0.00%    100.00% # Class of executed instruction being monitored (Count)
system.cpu.exec_context.thread_0.statExecutedInstTypeMonitor::(01:0x00000000-0x00000000)SimdFloatMisc            0      0.00%    100.00% # Class of executed instruction being monitored (Count)
system.cpu.exec_context.thread_0.statExecutedInstTypeMonitor::(01:0x00000000-0x00000000)SimdFloatMult            0      0.00%    100.00% # Class of executed instruction being monitored (Count)
system.cpu.exec_context.thread_0.statExecutedInstTypeMonitor::(01:0x00000000-0x00000000)SimdFloatMultAcc            0      0.00%    100.00% # Class of executed instruction being monitored (Count)
system.cpu.exec_context.thread_0.statExecutedInstTypeMonitor::(01:0x00000000-0x00000000)SimdFloatSqrt            0      0.00%    100.00% # Class of executed instruction being monitored (Count)
system.cpu.exec_context.thread_0.statExecutedInstTypeMonitor::(01:0x00000000-0x00000000)SimdReduceAdd            0      0.00%    100.00% # Class of executed instruction being monitored (Count)
system.cpu.exec_context.thread_0.statExecutedInstTypeMonitor::(01:0x00000000-0x00000000)SimdReduceAlu            0      0.00%    100.00% # Class of executed instruction being monitored (Count)
system.cpu.exec_context.thread_0.statExecutedInstTypeMonitor::(01:0x00000000-0x00000000)SimdReduceCmp            0      0.00%    100.00% # Class of executed instruction being monitored (Count)
system.cpu.exec_context.thread_0.statExecutedInstTypeMonitor::(01:0x00000000-0x00000000)SimdFloatReduceAdd            0      0.00%    100.00% # Class of executed instruction being monitored (Count)
system.cpu.exec_context.thread_0.statExecutedInstTypeMonitor::(01:0x00000000-0x00000000)SimdFloatReduceCmp            0      0.00%    100.00% # Class of executed instruction being monitored (Count)
system.cpu.exec_context.thread_0.statExecutedInstTypeMonitor::(01:0x00000000-0x00000000)SimdAes            0      0.00%    100.00% # Class of executed instruction being monitored (Count)
system.cpu.exec_context.thread_0.statExecutedInstTypeMonitor::(01:0x00000000-0x00000000)SimdAesMix            0      0.00%    100.00% # Class of executed instruction being monitored (Count)
system.cpu.exec_context.thread_0.statExecutedInstTypeMonitor::(01:0x00000000-0x00000000)SimdSha1Hash            0      0.00%    100.00% # Class of executed instruction being monitored (Count)
system.cpu.exec_context.thread_0.statExecutedInstTypeMonitor::(01:0x00000000-0x00000000)SimdSha1Hash2            0      0.00%    100.00% # Class of executed instruction being monitored (Count)
system.cpu.exec_context.thread_0.statExecutedInstTypeMonitor::(01:0x00000000-0x00000000)SimdSha256Hash            0      0.00%    100.00% # Class of executed instruction being monitored (Count)
system.cpu.exec_context.thread_0.statExecutedInstTypeMonitor::(01:0x00000000-0x00000000)SimdSha256Hash2            0      0.00%    100.00% # Class of executed instruction being monitored (Count)
system.cpu.exec_context.thread_0.statExecutedInstTypeMonitor::(01:0x00000000-0x00000000)SimdShaSigma2            0      0.00%    100.00% # Class of executed instruction being monitored (Count)
system.cpu.exec_context.thread_0.statExecutedInstTypeMonitor::(01:0x00000000-0x00000000)SimdShaSigma3            0      0.00%    100.00% # Class of executed instruction being monitored (Count)
system.cpu.exec_context.thread_0.statExecutedInstTypeMonitor::(01:0x00000000-0x00000000)SimdPredAlu            0      0.00%    100.00% # Class of executed instruction being monitored (Count)
system.cpu.exec_context.thread_0.statExecutedInstTypeMonitor::(01:0x00000000-0x00000000)MemRead            0      0.00%    100.00% # Class of executed instruction being monitored (Count)
system.cpu.exec_context.thread_0.statExecutedInstTypeMonitor::(01:0x00000000-0x00000000)MemWrite            0      0.00%    100.00% # Class of executed instruction being monitored (Count)
system.cpu.exec_context.thread_0.statExecutedInstTypeMonitor::(01:0x00000000-0x00000000)FloatMemRead            0      0.00%    100.00% # Class of executed instruction being monitored (Count)
system.cpu.exec_context.thread_0.statExecutedInstTypeMonitor::(01:0x00000000-0x00000000)FloatMemWrite            0      0.00%    100.00% # Class of executed instruction being monitored (Count)
system.cpu.exec_context.thread_0.statExecutedInstTypeMonitor::(01:0x00000000-0x00000000)IprAccess            0      0.00%    100.00% # Class of executed instruction being monitored (Count)
system.cpu.exec_context.thread_0.statExecutedInstTypeMonitor::(01:0x00000000-0x00000000)InstPrefetch            0      0.00%    100.00% # Class of executed instruction being monitored (Count)
system.cpu.exec_context.thread_0.statExecutedInstTypeMonitor::(01:0x00000000-0x00000000)VectorIndexedMemLoad            0      0.00%    100.00% # Class of executed instruction being monitored (Count)
system.cpu.exec_context.thread_0.statExecutedInstTypeMonitor::(01:0x00000000-0x00000000)VectorIndexedMemStore            0      0.00%    100.00% # Class of executed instruction being monitored (Count)
system.cpu.exec_context.thread_0.statExecutedInstTypeMonitor::(01:0x00000000-0x00000000)VectorStridedMemLoad            0      0.00%    100.00% # Class of executed instruction being monitored (Count)
system.cpu.exec_context.thread_0.statExecutedInstTypeMonitor::(01:0x00000000-0x00000000)VectorStridedMemStore            0      0.00%    100.00% # Class of executed instruction being monitored (Count)
system.cpu.exec_context.thread_0.statExecutedInstTypeMonitor::(01:0x00000000-0x00000000)VectorUnitStrideMemLoad            0      0.00%    100.00% # Class of executed instruction being monitored (Count)
system.cpu.exec_context.thread_0.statExecutedInstTypeMonitor::(01:0x00000000-0x00000000)VectorUnitStrideMemStore            0      0.00%    100.00% # Class of executed instruction being monitored (Count)
system.cpu.exec_context.thread_0.statExecutedInstTypeMonitor::(01:0x00000000-0x00000000)VectorOPIVI            0      0.00%    100.00% # Class of executed instruction being monitored (Count)
system.cpu.exec_context.thread_0.statExecutedInstTypeMonitor::(01:0x00000000-0x00000000)VectorOPIVISL            0      0.00%    100.00% # Class of executed instruction being monitored (Count)
system.cpu.exec_context.thread_0.statExecutedInstTypeMonitor::(01:0x00000000-0x00000000)VectorVdVs2Rs1            0      0.00%    100.00% # Class of executed instruction being monitored (Count)
system.cpu.exec_context.thread_0.statExecutedInstTypeMonitor::(01:0x00000000-0x00000000)VectorVdVs2Rs1SL            0      0.00%    100.00% # Class of executed instruction being monitored (Count)
system.cpu.exec_context.thread_0.statExecutedInstTypeMonitor::(01:0x00000000-0x00000000)VectorVdVs2Fs1            0      0.00%    100.00% # Class of executed instruction being monitored (Count)
system.cpu.exec_context.thread_0.statExecutedInstTypeMonitor::(01:0x00000000-0x00000000)VectorWideningVdVs2            0      0.00%    100.00% # Class of executed instruction being monitored (Count)
system.cpu.exec_context.thread_0.statExecutedInstTypeMonitor::(01:0x00000000-0x00000000)VectorNarrowingVV            0      0.00%    100.00% # Class of executed instruction being monitored (Count)
system.cpu.exec_context.thread_0.statExecutedInstTypeMonitor::(01:0x00000000-0x00000000)VectorNarrowingVI            0      0.00%    100.00% # Class of executed instruction being monitored (Count)
system.cpu.exec_context.thread_0.statExecutedInstTypeMonitor::(01:0x00000000-0x00000000)VectorNarrowingWX            0      0.00%    100.00% # Class of executed instruction being monitored (Count)
system.cpu.exec_context.thread_0.statExecutedInstTypeMonitor::(01:0x00000000-0x00000000)VectorWideningVX            0      0.00%    100.00% # Class of executed instruction being monitored (Count)
system.cpu.exec_context.thread_0.statExecutedInstTypeMonitor::(01:0x00000000-0x00000000)VectorWideningWV            0      0.00%    100.00% # Class of executed instruction being monitored (Count)
system.cpu.exec_context.thread_0.statExecutedInstTypeMonitor::(01:0x00000000-0x00000000)VectorWideningVV            0      0.00%    100.00% # Class of executed instruction being monitored (Count)
system.cpu.exec_context.thread_0.statExecutedInstTypeMonitor::(01:0x00000000-0x00000000)VectorVdVs2Vs1Op            0      0.00%    100.00% # Class of executed instruction being monitored (Count)
system.cpu.exec_context.thread_0.statExecutedInstTypeMonitor::(01:0x00000000-0x00000000)VectorAIVs1Vs2Vd            0      0.00%    100.00% # Class of executed instruction being monitored (Count)
system.cpu.exec_context.thread_0.statExecutedInstTypeMonitor::(01:0x00000000-0x00000000)VectorAINVs1Vs2Vd            0      0.00%    100.00% # Class of executed instruction being monitored (Count)
system.cpu.exec_context.thread_0.statExecutedInstTypeMonitor::(01:0x00000000-0x00000000)VectorAINLhVs1Vs2Vd            0      0.00%    100.00% # Class of executed instruction being monitored (Count)
system.cpu.exec_context.thread_0.statExecutedInstTypeMonitor::(01:0x00000000-0x00000000)VectorAILhVs1Vs2Vd            0      0.00%    100.00% # Class of executed instruction being monitored (Count)
system.cpu.exec_context.thread_0.statExecutedInstTypeMonitor::(01:0x00000000-0x00000000)VectorVRXUNARY0            0      0.00%    100.00% # Class of executed instruction being monitored (Count)
system.cpu.exec_context.thread_0.statExecutedInstTypeMonitor::(01:0x00000000-0x00000000)VectorVRFUNARY0            0      0.00%    100.00% # Class of executed instruction being monitored (Count)
system.cpu.exec_context.thread_0.statExecutedInstTypeMonitor::(01:0x00000000-0x00000000)VectorVWFUNARY0            0      0.00%    100.00% # Class of executed instruction being monitored (Count)
system.cpu.exec_context.thread_0.statExecutedInstTypeMonitor::(01:0x00000000-0x00000000)VectorVFUNARY0            0      0.00%    100.00% # Class of executed instruction being monitored (Count)
system.cpu.exec_context.thread_0.statExecutedInstTypeMonitor::(01:0x00000000-0x00000000)VectorVWXUNARY0            0      0.00%    100.00% # Class of executed instruction being monitored (Count)
system.cpu.exec_context.thread_0.statExecutedInstTypeMonitor::(01:0x00000000-0x00000000)VectorVMUNARY0            0      0.00%    100.00% # Class of executed instruction being monitored (Count)
system.cpu.exec_context.thread_0.statExecutedInstTypeMonitor::(01:0x00000000-0x00000000)VectorIntegerExtension            0      0.00%    100.00% # Class of executed instruction being monitored (Count)
system.cpu.exec_context.thread_0.statExecutedInstTypeMonitor::(01:0x00000000-0x00000000)VectorMaskRegisterVdVs2Vs1            0      0.00%    100.00% # Class of executed instruction being monitored (Count)
system.cpu.exec_context.thread_0.statExecutedInstTypeMonitor::(01:0x00000000-0x00000000)VectorMaskRegisterVdVs2            0      0.00%    100.00% # Class of executed instruction being monitored (Count)
system.cpu.exec_context.thread_0.statExecutedInstTypeMonitor::(01:0x00000000-0x00000000)VectorWholeRegisterMove            0      0.00%    100.00% # Class of executed instruction being monitored (Count)
system.cpu.exec_context.thread_0.statExecutedInstTypeMonitor::(01:0x00000000-0x00000000)VectorCfg            0      0.00%    100.00% # Class of executed instruction being monitored (Count)
system.cpu.exec_context.thread_0.statExecutedInstTypeMonitor::(02:0x00000000-0x00000000)No_OpClass            0      0.00%    100.00% # Class of executed instruction being monitored (Count)
system.cpu.exec_context.thread_0.statExecutedInstTypeMonitor::(02:0x00000000-0x00000000)IntAlu            0      0.00%    100.00% # Class of executed instruction being monitored (Count)
system.cpu.exec_context.thread_0.statExecutedInstTypeMonitor::(02:0x00000000-0x00000000)IntMult            0      0.00%    100.00% # Class of executed instruction being monitored (Count)
system.cpu.exec_context.thread_0.statExecutedInstTypeMonitor::(02:0x00000000-0x00000000)IntDiv            0      0.00%    100.00% # Class of executed instruction being monitored (Count)
system.cpu.exec_context.thread_0.statExecutedInstTypeMonitor::(02:0x00000000-0x00000000)FloatAdd            0      0.00%    100.00% # Class of executed instruction being monitored (Count)
system.cpu.exec_context.thread_0.statExecutedInstTypeMonitor::(02:0x00000000-0x00000000)FloatCmp            0      0.00%    100.00% # Class of executed instruction being monitored (Count)
system.cpu.exec_context.thread_0.statExecutedInstTypeMonitor::(02:0x00000000-0x00000000)FloatCvt            0      0.00%    100.00% # Class of executed instruction being monitored (Count)
system.cpu.exec_context.thread_0.statExecutedInstTypeMonitor::(02:0x00000000-0x00000000)FloatMult            0      0.00%    100.00% # Class of executed instruction being monitored (Count)
system.cpu.exec_context.thread_0.statExecutedInstTypeMonitor::(02:0x00000000-0x00000000)FloatMultAcc            0      0.00%    100.00% # Class of executed instruction being monitored (Count)
system.cpu.exec_context.thread_0.statExecutedInstTypeMonitor::(02:0x00000000-0x00000000)FloatDiv            0      0.00%    100.00% # Class of executed instruction being monitored (Count)
system.cpu.exec_context.thread_0.statExecutedInstTypeMonitor::(02:0x00000000-0x00000000)FloatMisc            0      0.00%    100.00% # Class of executed instruction being monitored (Count)
system.cpu.exec_context.thread_0.statExecutedInstTypeMonitor::(02:0x00000000-0x00000000)FloatSqrt            0      0.00%    100.00% # Class of executed instruction being monitored (Count)
system.cpu.exec_context.thread_0.statExecutedInstTypeMonitor::(02:0x00000000-0x00000000)SimdAdd            0      0.00%    100.00% # Class of executed instruction being monitored (Count)
system.cpu.exec_context.thread_0.statExecutedInstTypeMonitor::(02:0x00000000-0x00000000)SimdAddAcc            0      0.00%    100.00% # Class of executed instruction being monitored (Count)
system.cpu.exec_context.thread_0.statExecutedInstTypeMonitor::(02:0x00000000-0x00000000)SimdAlu            0      0.00%    100.00% # Class of executed instruction being monitored (Count)
system.cpu.exec_context.thread_0.statExecutedInstTypeMonitor::(02:0x00000000-0x00000000)SimdCmp            0      0.00%    100.00% # Class of executed instruction being monitored (Count)
system.cpu.exec_context.thread_0.statExecutedInstTypeMonitor::(02:0x00000000-0x00000000)SimdCvt            0      0.00%    100.00% # Class of executed instruction being monitored (Count)
system.cpu.exec_context.thread_0.statExecutedInstTypeMonitor::(02:0x00000000-0x00000000)SimdMisc            0      0.00%    100.00% # Class of executed instruction being monitored (Count)
system.cpu.exec_context.thread_0.statExecutedInstTypeMonitor::(02:0x00000000-0x00000000)SimdMult            0      0.00%    100.00% # Class of executed instruction being monitored (Count)
system.cpu.exec_context.thread_0.statExecutedInstTypeMonitor::(02:0x00000000-0x00000000)SimdMultAcc            0      0.00%    100.00% # Class of executed instruction being monitored (Count)
system.cpu.exec_context.thread_0.statExecutedInstTypeMonitor::(02:0x00000000-0x00000000)SimdShift            0      0.00%    100.00% # Class of executed instruction being monitored (Count)
system.cpu.exec_context.thread_0.statExecutedInstTypeMonitor::(02:0x00000000-0x00000000)SimdShiftAcc            0      0.00%    100.00% # Class of executed instruction being monitored (Count)
system.cpu.exec_context.thread_0.statExecutedInstTypeMonitor::(02:0x00000000-0x00000000)SimdDiv            0      0.00%    100.00% # Class of executed instruction being monitored (Count)
system.cpu.exec_context.thread_0.statExecutedInstTypeMonitor::(02:0x00000000-0x00000000)SimdSqrt            0      0.00%    100.00% # Class of executed instruction being monitored (Count)
system.cpu.exec_context.thread_0.statExecutedInstTypeMonitor::(02:0x00000000-0x00000000)SimdFloatAdd            0      0.00%    100.00% # Class of executed instruction being monitored (Count)
system.cpu.exec_context.thread_0.statExecutedInstTypeMonitor::(02:0x00000000-0x00000000)SimdFloatAlu            0      0.00%    100.00% # Class of executed instruction being monitored (Count)
system.cpu.exec_context.thread_0.statExecutedInstTypeMonitor::(02:0x00000000-0x00000000)SimdFloatCmp            0      0.00%    100.00% # Class of executed instruction being monitored (Count)
system.cpu.exec_context.thread_0.statExecutedInstTypeMonitor::(02:0x00000000-0x00000000)SimdFloatCvt            0      0.00%    100.00% # Class of executed instruction being monitored (Count)
system.cpu.exec_context.thread_0.statExecutedInstTypeMonitor::(02:0x00000000-0x00000000)SimdFloatDiv            0      0.00%    100.00% # Class of executed instruction being monitored (Count)
system.cpu.exec_context.thread_0.statExecutedInstTypeMonitor::(02:0x00000000-0x00000000)SimdFloatMisc            0      0.00%    100.00% # Class of executed instruction being monitored (Count)
system.cpu.exec_context.thread_0.statExecutedInstTypeMonitor::(02:0x00000000-0x00000000)SimdFloatMult            0      0.00%    100.00% # Class of executed instruction being monitored (Count)
system.cpu.exec_context.thread_0.statExecutedInstTypeMonitor::(02:0x00000000-0x00000000)SimdFloatMultAcc            0      0.00%    100.00% # Class of executed instruction being monitored (Count)
system.cpu.exec_context.thread_0.statExecutedInstTypeMonitor::(02:0x00000000-0x00000000)SimdFloatSqrt            0      0.00%    100.00% # Class of executed instruction being monitored (Count)
system.cpu.exec_context.thread_0.statExecutedInstTypeMonitor::(02:0x00000000-0x00000000)SimdReduceAdd            0      0.00%    100.00% # Class of executed instruction being monitored (Count)
system.cpu.exec_context.thread_0.statExecutedInstTypeMonitor::(02:0x00000000-0x00000000)SimdReduceAlu            0      0.00%    100.00% # Class of executed instruction being monitored (Count)
system.cpu.exec_context.thread_0.statExecutedInstTypeMonitor::(02:0x00000000-0x00000000)SimdReduceCmp            0      0.00%    100.00% # Class of executed instruction being monitored (Count)
system.cpu.exec_context.thread_0.statExecutedInstTypeMonitor::(02:0x00000000-0x00000000)SimdFloatReduceAdd            0      0.00%    100.00% # Class of executed instruction being monitored (Count)
system.cpu.exec_context.thread_0.statExecutedInstTypeMonitor::(02:0x00000000-0x00000000)SimdFloatReduceCmp            0      0.00%    100.00% # Class of executed instruction being monitored (Count)
system.cpu.exec_context.thread_0.statExecutedInstTypeMonitor::(02:0x00000000-0x00000000)SimdAes            0      0.00%    100.00% # Class of executed instruction being monitored (Count)
system.cpu.exec_context.thread_0.statExecutedInstTypeMonitor::(02:0x00000000-0x00000000)SimdAesMix            0      0.00%    100.00% # Class of executed instruction being monitored (Count)
system.cpu.exec_context.thread_0.statExecutedInstTypeMonitor::(02:0x00000000-0x00000000)SimdSha1Hash            0      0.00%    100.00% # Class of executed instruction being monitored (Count)
system.cpu.exec_context.thread_0.statExecutedInstTypeMonitor::(02:0x00000000-0x00000000)SimdSha1Hash2            0      0.00%    100.00% # Class of executed instruction being monitored (Count)
system.cpu.exec_context.thread_0.statExecutedInstTypeMonitor::(02:0x00000000-0x00000000)SimdSha256Hash            0      0.00%    100.00% # Class of executed instruction being monitored (Count)
system.cpu.exec_context.thread_0.statExecutedInstTypeMonitor::(02:0x00000000-0x00000000)SimdSha256Hash2            0      0.00%    100.00% # Class of executed instruction being monitored (Count)
system.cpu.exec_context.thread_0.statExecutedInstTypeMonitor::(02:0x00000000-0x00000000)SimdShaSigma2            0      0.00%    100.00% # Class of executed instruction being monitored (Count)
system.cpu.exec_context.thread_0.statExecutedInstTypeMonitor::(02:0x00000000-0x00000000)SimdShaSigma3            0      0.00%    100.00% # Class of executed instruction being monitored (Count)
system.cpu.exec_context.thread_0.statExecutedInstTypeMonitor::(02:0x00000000-0x00000000)SimdPredAlu            0      0.00%    100.00% # Class of executed instruction being monitored (Count)
system.cpu.exec_context.thread_0.statExecutedInstTypeMonitor::(02:0x00000000-0x00000000)MemRead            0      0.00%    100.00% # Class of executed instruction being monitored (Count)
system.cpu.exec_context.thread_0.statExecutedInstTypeMonitor::(02:0x00000000-0x00000000)MemWrite            0      0.00%    100.00% # Class of executed instruction being monitored (Count)
system.cpu.exec_context.thread_0.statExecutedInstTypeMonitor::(02:0x00000000-0x00000000)FloatMemRead            0      0.00%    100.00% # Class of executed instruction being monitored (Count)
system.cpu.exec_context.thread_0.statExecutedInstTypeMonitor::(02:0x00000000-0x00000000)FloatMemWrite            0      0.00%    100.00% # Class of executed instruction being monitored (Count)
system.cpu.exec_context.thread_0.statExecutedInstTypeMonitor::(02:0x00000000-0x00000000)IprAccess            0      0.00%    100.00% # Class of executed instruction being monitored (Count)
system.cpu.exec_context.thread_0.statExecutedInstTypeMonitor::(02:0x00000000-0x00000000)InstPrefetch            0      0.00%    100.00% # Class of executed instruction being monitored (Count)
system.cpu.exec_context.thread_0.statExecutedInstTypeMonitor::(02:0x00000000-0x00000000)VectorIndexedMemLoad            0      0.00%    100.00% # Class of executed instruction being monitored (Count)
system.cpu.exec_context.thread_0.statExecutedInstTypeMonitor::(02:0x00000000-0x00000000)VectorIndexedMemStore            0      0.00%    100.00% # Class of executed instruction being monitored (Count)
system.cpu.exec_context.thread_0.statExecutedInstTypeMonitor::(02:0x00000000-0x00000000)VectorStridedMemLoad            0      0.00%    100.00% # Class of executed instruction being monitored (Count)
system.cpu.exec_context.thread_0.statExecutedInstTypeMonitor::(02:0x00000000-0x00000000)VectorStridedMemStore            0      0.00%    100.00% # Class of executed instruction being monitored (Count)
system.cpu.exec_context.thread_0.statExecutedInstTypeMonitor::(02:0x00000000-0x00000000)VectorUnitStrideMemLoad            0      0.00%    100.00% # Class of executed instruction being monitored (Count)
system.cpu.exec_context.thread_0.statExecutedInstTypeMonitor::(02:0x00000000-0x00000000)VectorUnitStrideMemStore            0      0.00%    100.00% # Class of executed instruction being monitored (Count)
system.cpu.exec_context.thread_0.statExecutedInstTypeMonitor::(02:0x00000000-0x00000000)VectorOPIVI            0      0.00%    100.00% # Class of executed instruction being monitored (Count)
system.cpu.exec_context.thread_0.statExecutedInstTypeMonitor::(02:0x00000000-0x00000000)VectorOPIVISL            0      0.00%    100.00% # Class of executed instruction being monitored (Count)
system.cpu.exec_context.thread_0.statExecutedInstTypeMonitor::(02:0x00000000-0x00000000)VectorVdVs2Rs1            0      0.00%    100.00% # Class of executed instruction being monitored (Count)
system.cpu.exec_context.thread_0.statExecutedInstTypeMonitor::(02:0x00000000-0x00000000)VectorVdVs2Rs1SL            0      0.00%    100.00% # Class of executed instruction being monitored (Count)
system.cpu.exec_context.thread_0.statExecutedInstTypeMonitor::(02:0x00000000-0x00000000)VectorVdVs2Fs1            0      0.00%    100.00% # Class of executed instruction being monitored (Count)
[...]
system.mem_ctrls.dram.writeBursts                   0                       # Number of DRAM write bursts (Count)
system.mem_ctrls.dram.perBankRdBursts::0            0                       # Per bank write bursts (Count)
system.mem_ctrls.dram.perBankRdBursts::1            0                       # Per bank write bursts (Count)
system.mem_ctrls.dram.perBankRdBursts::2            0                       # Per bank write bursts (Count)
system.mem_ctrls.dram.perBankRdBursts::3            0                       # Per bank write bursts (Count)
system.mem_ctrls.dram.perBankRdBursts::4            0                       # Per bank write bursts (Count)
system.mem_ctrls.dram.perBankRdBursts::5            0                       # Per bank write bursts (Count)
system.mem_ctrls.dram.perBankRdBursts::6            0                       # Per bank write bursts (Count)
system.mem_ctrls.dram.perBankRdBursts::7            0                       # Per bank write bursts (Count)
system.mem_ctrls.dram.perBankRdBursts::8            0                       # Per bank write bursts (Count)
system.mem_ctrls.dram.perBankRdBursts::9            0                       # Per bank write bursts (Count)
system.mem_ctrls.dram.perBankRdBursts::10            0                       # Per bank write bursts (Count)
system.mem_ctrls.dram.perBankRdBursts::11            0                       # Per bank write bursts (Count)
system.mem_ctrls.dram.perBankRdBursts::12            0                       # Per bank write bursts (Count)
system.mem_ctrls.dram.perBankRdBursts::13            0                       # Per bank write bursts (Count)
system.mem_ctrls.dram.perBankRdBursts::14            0                       # Per bank write bursts (Count)
system.mem_ctrls.dram.perBankRdBursts::15            0                       # Per bank write bursts (Count)
system.mem_ctrls.dram.perBankWrBursts::0            0                       # Per bank write bursts (Count)
system.mem_ctrls.dram.perBankWrBursts::1            0                       # Per bank write bursts (Count)
system.mem_ctrls.dram.perBankWrBursts::2            0                       # Per bank write bursts (Count)
system.mem_ctrls.dram.perBankWrBursts::3            0                       # Per bank write bursts (Count)
system.mem_ctrls.dram.perBankWrBursts::4            0                       # Per bank write bursts (Count)
system.mem_ctrls.dram.perBankWrBursts::5            0                       # Per bank write bursts (Count)
system.mem_ctrls.dram.perBankWrBursts::6            0                       # Per bank write bursts (Count)
system.mem_ctrls.dram.perBankWrBursts::7            0                       # Per bank write bursts (Count)
system.mem_ctrls.dram.perBankWrBursts::8            0                       # Per bank write bursts (Count)
system.mem_ctrls.dram.perBankWrBursts::9            0                       # Per bank write bursts (Count)
system.mem_ctrls.dram.perBankWrBursts::10            0                       # Per bank write bursts (Count)
system.mem_ctrls.dram.perBankWrBursts::11            0                       # Per bank write bursts (Count)
system.mem_ctrls.dram.perBankWrBursts::12            0                       # Per bank write bursts (Count)
system.mem_ctrls.dram.perBankWrBursts::13            0                       # Per bank write bursts (Count)
system.mem_ctrls.dram.perBankWrBursts::14            0                       # Per bank write bursts (Count)
system.mem_ctrls.dram.perBankWrBursts::15            0                       # Per bank write bursts (Count)
system.mem_ctrls.dram.totQLat                       0                       # Total ticks spent queuing (Tick)
system.mem_ctrls.dram.totBusLat                     0                       # Total ticks spent in databus transfers (Tick)
system.mem_ctrls.dram.totMemAccLat                  0                       # Total ticks spent from burst creation until serviced by the DRAM (Tick)
system.mem_ctrls.dram.avgQLat                     nan                       # Average queueing delay per DRAM burst ((Tick/Count))
system.mem_ctrls.dram.avgBusLat                   nan                       # Average bus latency per DRAM burst ((Tick/Count))
system.mem_ctrls.dram.avgMemAccLat                nan                       # Average memory access latency per DRAM burst ((Tick/Count))
system.mem_ctrls.dram.readRowHits                   0                       # Number of row buffer hits during reads (Count)
system.mem_ctrls.dram.writeRowHits                  0                       # Number of row buffer hits during writes (Count)
system.mem_ctrls.dram.readRowHitRate              nan                       # Row buffer hit rate for reads (Ratio)
system.mem_ctrls.dram.writeRowHitRate             nan                       # Row buffer hit rate for writes (Ratio)
system.mem_ctrls.dram.bytesRead                     0                       # Total bytes read (Byte)
system.mem_ctrls.dram.bytesWritten                  0                       # Total bytes written (Byte)
system.mem_ctrls.dram.avgRdBW                       0                       # Average DRAM read bandwidth in MiBytes/s ((Byte/Second))
system.mem_ctrls.dram.avgWrBW                       0                       # Average DRAM write bandwidth in MiBytes/s ((Byte/Second))
system.mem_ctrls.dram.peakBW                 12800.00                       # Theoretical peak bandwidth in MiByte/s ((Byte/Second))
system.mem_ctrls.dram.busUtil                    0.00                       # Data bus utilization in percentage (Ratio)
system.mem_ctrls.dram.busUtilRead                0.00                       # Data bus utilization in percentage for reads (Ratio)
system.mem_ctrls.dram.busUtilWrite               0.00                       # Data bus utilization in percentage for writes (Ratio)
system.mem_ctrls.dram.pageHitRate                 nan                       # Row buffer hit rate, read and write combined (Ratio)
system.mem_ctrls.dram.power_state.pwrStateResidencyTicks::UNDEFINED   2304053625                       # Cumulative time (in ticks) in various power states (Tick)
system.mem_ctrls.dram.rank0.actEnergy               0                       # Energy for activate commands per rank (pJ) (Joule)
system.mem_ctrls.dram.rank0.preEnergy               0                       # Energy for precharge commands per rank (pJ) (Joule)
system.mem_ctrls.dram.rank0.readEnergy              0                       # Energy for read commands per rank (pJ) (Joule)
system.mem_ctrls.dram.rank0.writeEnergy             0                       # Energy for write commands per rank (pJ) (Joule)
system.mem_ctrls.dram.rank0.refreshEnergy            0                       # Energy for refresh commands per rank (pJ) (Joule)
system.mem_ctrls.dram.rank0.actBackEnergy            0                       # Energy for active background per rank (pJ) (Joule)
system.mem_ctrls.dram.rank0.preBackEnergy 884756592000                       # Energy for precharge background per rank (pJ) (Joule)
system.mem_ctrls.dram.rank0.actPowerDownEnergy            0                       # Energy for active power-down per rank (pJ) (Joule)
system.mem_ctrls.dram.rank0.prePowerDownEnergy            0                       # Energy for precharge power-down per rank (pJ) (Joule)
system.mem_ctrls.dram.rank0.selfRefreshEnergy            0                       # Energy for self refresh per rank (pJ) (Joule)
system.mem_ctrls.dram.rank0.totalEnergy  884756592000                       # Total energy per rank (pJ) (Joule)
system.mem_ctrls.dram.rank0.averagePower          384                       # Core power per rank (mW) (Watt)
system.mem_ctrls.dram.rank0.totalIdleTime            0                       # Total Idle time Per DRAM Rank (Tick)
system.mem_ctrls.dram.rank0.pwrStateTime::IDLE   2304053625                       # Time in different power states (Tick)
system.mem_ctrls.dram.rank0.pwrStateTime::REF            0                       # Time in different power states (Tick)
system.mem_ctrls.dram.rank0.pwrStateTime::SREF            0                       # Time in different power states (Tick)
system.mem_ctrls.dram.rank0.pwrStateTime::PRE_PDN            0                       # Time in different power states (Tick)
system.mem_ctrls.dram.rank0.pwrStateTime::ACT            0                       # Time in different power states (Tick)
system.mem_ctrls.dram.rank0.pwrStateTime::ACT_PDN            0                       # Time in different power states (Tick)
system.mem_ctrls.dram.rank1.actEnergy               0                       # Energy for activate commands per rank (pJ) (Joule)
system.mem_ctrls.dram.rank1.preEnergy               0                       # Energy for precharge commands per rank (pJ) (Joule)
system.mem_ctrls.dram.rank1.readEnergy              0                       # Energy for read commands per rank (pJ) (Joule)
system.mem_ctrls.dram.rank1.writeEnergy             0                       # Energy for write commands per rank (pJ) (Joule)
system.mem_ctrls.dram.rank1.refreshEnergy            0                       # Energy for refresh commands per rank (pJ) (Joule)
system.mem_ctrls.dram.rank1.actBackEnergy            0                       # Energy for active background per rank (pJ) (Joule)
system.mem_ctrls.dram.rank1.preBackEnergy 884756592000                       # Energy for precharge background per rank (pJ) (Joule)
system.mem_ctrls.dram.rank1.actPowerDownEnergy            0                       # Energy for active power-down per rank (pJ) (Joule)
system.mem_ctrls.dram.rank1.prePowerDownEnergy            0                       # Energy for precharge power-down per rank (pJ) (Joule)
system.mem_ctrls.dram.rank1.selfRefreshEnergy            0                       # Energy for self refresh per rank (pJ) (Joule)
system.mem_ctrls.dram.rank1.totalEnergy  884756592000                       # Total energy per rank (pJ) (Joule)
system.mem_ctrls.dram.rank1.averagePower          384                       # Core power per rank (mW) (Watt)
system.mem_ctrls.dram.rank1.totalIdleTime            0                       # Total Idle time Per DRAM Rank (Tick)
system.mem_ctrls.dram.rank1.pwrStateTime::IDLE   2304053625                       # Time in different power states (Tick)
system.mem_ctrls.dram.rank1.pwrStateTime::REF            0                       # Time in different power states (Tick)
system.mem_ctrls.dram.rank1.pwrStateTime::SREF            0                       # Time in different power states (Tick)
system.mem_ctrls.dram.rank1.pwrStateTime::PRE_PDN            0                       # Time in different power states (Tick)
system.mem_ctrls.dram.rank1.pwrStateTime::ACT            0                       # Time in different power states (Tick)
system.mem_ctrls.dram.rank1.pwrStateTime::ACT_PDN            0                       # Time in different power states (Tick)
system.mem_ctrls.power_state.pwrStateResidencyTicks::UNDEFINED   2304053625                       # Cumulative time (in ticks) in various power states (Tick)
system.membus.transDist::ReadResp             2102106                       # Transaction distribution (Count)
system.membus.transDist::WritebackDirty       1985510                       # Transaction distribution (Count)
system.membus.transDist::CleanEvict           2069056                       # Transaction distribution (Count)
system.membus.transDist::ReadExReq            1969510                       # Transaction distribution (Count)
system.membus.transDist::ReadExResp           1969510                       # Transaction distribution (Count)
system.membus.transDist::ReadSharedReq        2102106                       # Transaction distribution (Count)
system.membus.pktCount_system.l2.mem_side_port::system.mem_ctrls.port     12197798                       # Packet count per connected requestor and responder (Count)
system.membus.pktCount::total                12197798                       # Packet count per connected requestor and responder (Count)
system.membus.pktSize_system.l2.mem_side_port::system.mem_ctrls.port    387656064                       # Cumulative packet size per connected requestor and responder (Byte)
system.membus.pktSize::total                387656064                       # Cumulative packet size per connected requestor and responder (Byte)
system.membus.snoops                                0                       # Total snoops (Count)
system.membus.snoopTraffic                          0                       # Total snoop traffic (Byte)
system.membus.snoopFanout::samples            4071616                       # Request fanout histogram (Count)
system.membus.snoopFanout::mean                     0                       # Request fanout histogram (Count)
system.membus.snoopFanout::stdev                    0                       # Request fanout histogram (Count)
system.membus.snoopFanout::underflows               0      0.00%      0.00% # Request fanout histogram (Count)
system.membus.snoopFanout::0                  4071616    100.00%    100.00% # Request fanout histogram (Count)
system.membus.snoopFanout::1                        0      0.00%    100.00% # Request fanout histogram (Count)
system.membus.snoopFanout::overflows                0      0.00%    100.00% # Request fanout histogram (Count)
system.membus.snoopFanout::min_value                0                       # Request fanout histogram (Count)
system.membus.snoopFanout::max_value                0                       # Request fanout histogram (Count)
system.membus.snoopFanout::total              4071616                       # Request fanout histogram (Count)
system.membus.power_state.pwrStateResidencyTicks::UNDEFINED   2304053625                       # Cumulative time (in ticks) in various power states (Tick)
system.membus.snoop_filter.totRequests        8126182                       # Total number of requests made to the snoop filter. (Count)
system.membus.snoop_filter.hitSingleRequests      4054566                       # Number of requests hitting in the snoop filter with a single holder of the requested data. (Count)
system.membus.snoop_filter.hitMultiRequests            0                       # Number of requests hitting in the snoop filter with multiple (>1) holders of the requested data. (Count)
system.membus.snoop_filter.totSnoops                0                       # Total number of snoops made to the snoop filter. (Count)
system.membus.snoop_filter.hitSingleSnoops            0                       # Number of snoops hitting in the snoop filter with a single holder of the requested data. (Count)
system.membus.snoop_filter.hitMultiSnoops            0                       # Number of snoops hitting in the snoop filter with multiple (>1) holders of the requested data. (Count)
system.tol2bus.transDist::ReadResp           12430549                       # Transaction distribution (Count)
system.tol2bus.transDist::WritebackDirty      3257767                       # Transaction distribution (Count)
system.tol2bus.transDist::WritebackClean         4727                       # Transaction distribution (Count)
system.tol2bus.transDist::CleanEvict         11369023                       # Transaction distribution (Count)
system.tol2bus.transDist::ReadExReq           2203016                       # Transaction distribution (Count)
system.tol2bus.transDist::ReadExResp          2203016                       # Transaction distribution (Count)
system.tol2bus.transDist::ReadCleanReq           5751                       # Transaction distribution (Count)
system.tol2bus.transDist::ReadSharedReq      12424798                       # Transaction distribution (Count)
system.tol2bus.pktCount_system.cpu.icache.mem_side_port::system.l2.cpu_side_port        16229                       # Packet count per connected requestor and responder (Count)
system.tol2bus.pktCount_system.cpu.dcache.mem_side_port::system.l2.cpu_side_port     43882418                       # Packet count per connected requestor and responder (Count)
system.tol2bus.pktCount::total               43898647                       # Packet count per connected requestor and responder (Count)
system.tol2bus.pktSize_system.cpu.icache.mem_side_port::system.l2.cpu_side_port       670592                       # Cumulative packet size per connected requestor and responder (Byte)
system.tol2bus.pktSize_system.cpu.dcache.mem_side_port::system.l2.cpu_side_port   1144677184                       # Cumulative packet size per connected requestor and responder (Byte)
system.tol2bus.pktSize::total              1145347776                       # Cumulative packet size per connected requestor and responder (Byte)
system.tol2bus.snoops                         4059225                       # Total snoops (Count)
system.tol2bus.snoopTraffic                 127072640                       # Total snoop traffic (Byte)
system.tol2bus.snoopFanout::samples          18692790                       # Request fanout histogram (Count)
system.tol2bus.snoopFanout::mean             0.000589                       # Request fanout histogram (Count)
system.tol2bus.snoopFanout::stdev            0.024272                       # Request fanout histogram (Count)
system.tol2bus.snoopFanout::underflows              0      0.00%      0.00% # Request fanout histogram (Count)
system.tol2bus.snoopFanout::0                18681771     99.94%     99.94% # Request fanout histogram (Count)
system.tol2bus.snoopFanout::1                   11019      0.06%    100.00% # Request fanout histogram (Count)
system.tol2bus.snoopFanout::2                       0      0.00%    100.00% # Request fanout histogram (Count)
system.tol2bus.snoopFanout::3                       0      0.00%    100.00% # Request fanout histogram (Count)
system.tol2bus.snoopFanout::4                       0      0.00%    100.00% # Request fanout histogram (Count)
system.tol2bus.snoopFanout::overflows               0      0.00%    100.00% # Request fanout histogram (Count)
system.tol2bus.snoopFanout::min_value               0                       # Request fanout histogram (Count)
system.tol2bus.snoopFanout::max_value               1                       # Request fanout histogram (Count)
system.tol2bus.snoopFanout::total            18692790                       # Request fanout histogram (Count)
system.tol2bus.power_state.pwrStateResidencyTicks::UNDEFINED   2304053625                       # Cumulative time (in ticks) in various power states (Tick)
system.tol2bus.snoop_filter.totRequests      29265082                       # Total number of requests made to the snoop filter. (Count)
system.tol2bus.snoop_filter.hitSingleRequests     14631517                       # Number of requests hitting in the snoop filter with a single holder of the requested data. (Count)
system.tol2bus.snoop_filter.hitMultiRequests            0                       # Number of requests hitting in the snoop filter with multiple (>1) holders of the requested data. (Count)
system.tol2bus.snoop_filter.totSnoops           11019                       # Total number of snoops made to the snoop filter. (Count)
system.tol2bus.snoop_filter.hitSingleSnoops        11019                       # Number of snoops hitting in the snoop filter with a single holder of the requested data. (Count)
system.tol2bus.snoop_filter.hitMultiSnoops            0                       # Number of snoops hitting in the snoop filter with multiple (>1) holders of the requested data. (Count)
system.voltage_domain.voltage                       1                       # Voltage in Volts (Volt)
system.workload.inst.arm                            0                       # number of arm instructions executed (Count)
system.workload.inst.quiesce                        0                       # number of quiesce instructions executed (Count)

---------- End Simulation Statistics   ----------
